data_image0
_chemical_formula_structural       Pb512Ti512O1536
_chemical_formula_sum              "Pb512 Ti512 O1536"
_cell_length_a       59.2
_cell_length_b       59.2
_cell_length_c       7.4
_cell_angle_alpha    90
_cell_angle_beta     90
_cell_angle_gamma    90

_symmetry_space_group_name_H-M    "P 1"
_symmetry_int_tables_number       1

loop_
  _symmetry_equiv_pos_as_xyz
  'x, y, z'

loop_
  _atom_site_type_symbol
  _atom_site_label
  _atom_site_symmetry_multiplicity
  _atom_site_fract_x
  _atom_site_fract_y
  _atom_site_fract_z
  _atom_site_occupancy
  Pb  Pb1       1.0  0.00000  0.00000  0.00000  1.0000
  Pb  Pb2       1.0  0.06250  0.00000  0.00000  1.0000
  Pb  Pb3       1.0  0.12500  0.00000  0.00000  1.0000
  Pb  Pb4       1.0  0.18750  0.00000  0.00000  1.0000
  Pb  Pb5       1.0  0.25000  0.00000  0.00000  1.0000
  Pb  Pb6       1.0  0.31250  0.00000  0.00000  1.0000
  Pb  Pb7       1.0  0.37500  0.00000  0.00000  1.0000
  Pb  Pb8       1.0  0.43750  0.00000  0.00000  1.0000
  Pb  Pb9       1.0  0.50000  0.00000  0.00000  1.0000
  Pb  Pb10      1.0  0.56250  0.00000  0.00000  1.0000
  Pb  Pb11      1.0  0.62500  0.00000  0.00000  1.0000
  Pb  Pb12      1.0  0.68750  0.00000  0.00000  1.0000
  Pb  Pb13      1.0  0.75000  0.00000  0.00000  1.0000
  Pb  Pb14      1.0  0.81250  0.00000  0.00000  1.0000
  Pb  Pb15      1.0  0.87500  0.00000  0.00000  1.0000
  Pb  Pb16      1.0  0.93750  0.00000  0.00000  1.0000
  Pb  Pb17      1.0  0.00000  0.06250  0.00000  1.0000
  Pb  Pb18      1.0  0.06250  0.06250  0.00000  1.0000
  Pb  Pb19      1.0  0.12500  0.06250  0.00000  1.0000
  Pb  Pb20      1.0  0.18750  0.06250  0.00000  1.0000
  Pb  Pb21      1.0  0.25000  0.06250  0.00000  1.0000
  Pb  Pb22      1.0  0.31250  0.06250  0.00000  1.0000
  Pb  Pb23      1.0  0.37500  0.06250  0.00000  1.0000
  Pb  Pb24      1.0  0.43750  0.06250  0.00000  1.0000
  Pb  Pb25      1.0  0.50000  0.06250  0.00000  1.0000
  Pb  Pb26      1.0  0.56250  0.06250  0.00000  1.0000
  Pb  Pb27      1.0  0.62500  0.06250  0.00000  1.0000
  Pb  Pb28      1.0  0.68750  0.06250  0.00000  1.0000
  Pb  Pb29      1.0  0.75000  0.06250  0.00000  1.0000
  Pb  Pb30      1.0  0.81250  0.06250  0.00000  1.0000
  Pb  Pb31      1.0  0.87500  0.06250  0.00000  1.0000
  Pb  Pb32      1.0  0.93750  0.06250  0.00000  1.0000
  Pb  Pb33      1.0  0.00000  0.12500  0.00000  1.0000
  Pb  Pb34      1.0  0.06250  0.12500  0.00000  1.0000
  Pb  Pb35      1.0  0.12500  0.12500  0.00000  1.0000
  Pb  Pb36      1.0  0.18750  0.12500  0.00000  1.0000
  Pb  Pb37      1.0  0.25000  0.12500  0.00000  1.0000
  Pb  Pb38      1.0  0.31250  0.12500  0.00000  1.0000
  Pb  Pb39      1.0  0.37500  0.12500  0.00000  1.0000
  Pb  Pb40      1.0  0.43750  0.12500  0.00000  1.0000
  Pb  Pb41      1.0  0.50000  0.12500  0.00000  1.0000
  Pb  Pb42      1.0  0.56250  0.12500  0.00000  1.0000
  Pb  Pb43      1.0  0.62500  0.12500  0.00000  1.0000
  Pb  Pb44      1.0  0.68750  0.12500  0.00000  1.0000
  Pb  Pb45      1.0  0.75000  0.12500  0.00000  1.0000
  Pb  Pb46      1.0  0.81250  0.12500  0.00000  1.0000
  Pb  Pb47      1.0  0.87500  0.12500  0.00000  1.0000
  Pb  Pb48      1.0  0.93750  0.12500  0.00000  1.0000
  Pb  Pb49      1.0  0.00000  0.18750  0.00000  1.0000
  Pb  Pb50      1.0  0.06250  0.18750  0.00000  1.0000
  Pb  Pb51      1.0  0.12500  0.18750  0.00000  1.0000
  Pb  Pb52      1.0  0.18750  0.18750  0.00000  1.0000
  Pb  Pb53      1.0  0.25000  0.18750  0.00000  1.0000
  Pb  Pb54      1.0  0.31250  0.18750  0.00000  1.0000
  Pb  Pb55      1.0  0.37500  0.18750  0.00000  1.0000
  Pb  Pb56      1.0  0.43750  0.18750  0.00000  1.0000
  Pb  Pb57      1.0  0.50000  0.18750  0.00000  1.0000
  Pb  Pb58      1.0  0.56250  0.18750  0.00000  1.0000
  Pb  Pb59      1.0  0.62500  0.18750  0.00000  1.0000
  Pb  Pb60      1.0  0.68750  0.18750  0.00000  1.0000
  Pb  Pb61      1.0  0.75000  0.18750  0.00000  1.0000
  Pb  Pb62      1.0  0.81250  0.18750  0.00000  1.0000
  Pb  Pb63      1.0  0.87500  0.18750  0.00000  1.0000
  Pb  Pb64      1.0  0.93750  0.18750  0.00000  1.0000
  Pb  Pb65      1.0  0.00000  0.25000  0.00000  1.0000
  Pb  Pb66      1.0  0.06250  0.25000  0.00000  1.0000
  Pb  Pb67      1.0  0.12500  0.25000  0.00000  1.0000
  Pb  Pb68      1.0  0.18750  0.25000  0.00000  1.0000
  Pb  Pb69      1.0  0.25000  0.25000  0.00000  1.0000
  Pb  Pb70      1.0  0.31250  0.25000  0.00000  1.0000
  Pb  Pb71      1.0  0.37500  0.25000  0.00000  1.0000
  Pb  Pb72      1.0  0.43750  0.25000  0.00000  1.0000
  Pb  Pb73      1.0  0.50000  0.25000  0.00000  1.0000
  Pb  Pb74      1.0  0.56250  0.25000  0.00000  1.0000
  Pb  Pb75      1.0  0.62500  0.25000  0.00000  1.0000
  Pb  Pb76      1.0  0.68750  0.25000  0.00000  1.0000
  Pb  Pb77      1.0  0.75000  0.25000  0.00000  1.0000
  Pb  Pb78      1.0  0.81250  0.25000  0.00000  1.0000
  Pb  Pb79      1.0  0.87500  0.25000  0.00000  1.0000
  Pb  Pb80      1.0  0.93750  0.25000  0.00000  1.0000
  Pb  Pb81      1.0  0.00000  0.31250  0.00000  1.0000
  Pb  Pb82      1.0  0.06250  0.31250  0.00000  1.0000
  Pb  Pb83      1.0  0.12500  0.31250  0.00000  1.0000
  Pb  Pb84      1.0  0.18750  0.31250  0.00000  1.0000
  Pb  Pb85      1.0  0.25000  0.31250  0.00000  1.0000
  Pb  Pb86      1.0  0.31250  0.31250  0.00000  1.0000
  Pb  Pb87      1.0  0.37500  0.31250  0.00000  1.0000
  Pb  Pb88      1.0  0.43750  0.31250  0.00000  1.0000
  Pb  Pb89      1.0  0.50000  0.31250  0.00000  1.0000
  Pb  Pb90      1.0  0.56250  0.31250  0.00000  1.0000
  Pb  Pb91      1.0  0.62500  0.31250  0.00000  1.0000
  Pb  Pb92      1.0  0.68750  0.31250  0.00000  1.0000
  Pb  Pb93      1.0  0.75000  0.31250  0.00000  1.0000
  Pb  Pb94      1.0  0.81250  0.31250  0.00000  1.0000
  Pb  Pb95      1.0  0.87500  0.31250  0.00000  1.0000
  Pb  Pb96      1.0  0.93750  0.31250  0.00000  1.0000
  Pb  Pb97      1.0  0.00000  0.37500  0.00000  1.0000
  Pb  Pb98      1.0  0.06250  0.37500  0.00000  1.0000
  Pb  Pb99      1.0  0.12500  0.37500  0.00000  1.0000
  Pb  Pb100     1.0  0.18750  0.37500  0.00000  1.0000
  Pb  Pb101     1.0  0.25000  0.37500  0.00000  1.0000
  Pb  Pb102     1.0  0.31250  0.37500  0.00000  1.0000
  Pb  Pb103     1.0  0.37500  0.37500  0.00000  1.0000
  Pb  Pb104     1.0  0.43750  0.37500  0.00000  1.0000
  Pb  Pb105     1.0  0.50000  0.37500  0.00000  1.0000
  Pb  Pb106     1.0  0.56250  0.37500  0.00000  1.0000
  Pb  Pb107     1.0  0.62500  0.37500  0.00000  1.0000
  Pb  Pb108     1.0  0.68750  0.37500  0.00000  1.0000
  Pb  Pb109     1.0  0.75000  0.37500  0.00000  1.0000
  Pb  Pb110     1.0  0.81250  0.37500  0.00000  1.0000
  Pb  Pb111     1.0  0.87500  0.37500  0.00000  1.0000
  Pb  Pb112     1.0  0.93750  0.37500  0.00000  1.0000
  Pb  Pb113     1.0  0.00000  0.43750  0.00000  1.0000
  Pb  Pb114     1.0  0.06250  0.43750  0.00000  1.0000
  Pb  Pb115     1.0  0.12500  0.43750  0.00000  1.0000
  Pb  Pb116     1.0  0.18750  0.43750  0.00000  1.0000
  Pb  Pb117     1.0  0.25000  0.43750  0.00000  1.0000
  Pb  Pb118     1.0  0.31250  0.43750  0.00000  1.0000
  Pb  Pb119     1.0  0.37500  0.43750  0.00000  1.0000
  Pb  Pb120     1.0  0.43750  0.43750  0.00000  1.0000
  Pb  Pb121     1.0  0.50000  0.43750  0.00000  1.0000
  Pb  Pb122     1.0  0.56250  0.43750  0.00000  1.0000
  Pb  Pb123     1.0  0.62500  0.43750  0.00000  1.0000
  Pb  Pb124     1.0  0.68750  0.43750  0.00000  1.0000
  Pb  Pb125     1.0  0.75000  0.43750  0.00000  1.0000
  Pb  Pb126     1.0  0.81250  0.43750  0.00000  1.0000
  Pb  Pb127     1.0  0.87500  0.43750  0.00000  1.0000
  Pb  Pb128     1.0  0.93750  0.43750  0.00000  1.0000
  Pb  Pb129     1.0  0.00000  0.50000  0.00000  1.0000
  Pb  Pb130     1.0  0.06250  0.50000  0.00000  1.0000
  Pb  Pb131     1.0  0.12500  0.50000  0.00000  1.0000
  Pb  Pb132     1.0  0.18750  0.50000  0.00000  1.0000
  Pb  Pb133     1.0  0.25000  0.50000  0.00000  1.0000
  Pb  Pb134     1.0  0.31250  0.50000  0.00000  1.0000
  Pb  Pb135     1.0  0.37500  0.50000  0.00000  1.0000
  Pb  Pb136     1.0  0.43750  0.50000  0.00000  1.0000
  Pb  Pb137     1.0  0.50000  0.50000  0.00000  1.0000
  Pb  Pb138     1.0  0.56250  0.50000  0.00000  1.0000
  Pb  Pb139     1.0  0.62500  0.50000  0.00000  1.0000
  Pb  Pb140     1.0  0.68750  0.50000  0.00000  1.0000
  Pb  Pb141     1.0  0.75000  0.50000  0.00000  1.0000
  Pb  Pb142     1.0  0.81250  0.50000  0.00000  1.0000
  Pb  Pb143     1.0  0.87500  0.50000  0.00000  1.0000
  Pb  Pb144     1.0  0.93750  0.50000  0.00000  1.0000
  Pb  Pb145     1.0  0.00000  0.56250  0.00000  1.0000
  Pb  Pb146     1.0  0.06250  0.56250  0.00000  1.0000
  Pb  Pb147     1.0  0.12500  0.56250  0.00000  1.0000
  Pb  Pb148     1.0  0.18750  0.56250  0.00000  1.0000
  Pb  Pb149     1.0  0.25000  0.56250  0.00000  1.0000
  Pb  Pb150     1.0  0.31250  0.56250  0.00000  1.0000
  Pb  Pb151     1.0  0.37500  0.56250  0.00000  1.0000
  Pb  Pb152     1.0  0.43750  0.56250  0.00000  1.0000
  Pb  Pb153     1.0  0.50000  0.56250  0.00000  1.0000
  Pb  Pb154     1.0  0.56250  0.56250  0.00000  1.0000
  Pb  Pb155     1.0  0.62500  0.56250  0.00000  1.0000
  Pb  Pb156     1.0  0.68750  0.56250  0.00000  1.0000
  Pb  Pb157     1.0  0.75000  0.56250  0.00000  1.0000
  Pb  Pb158     1.0  0.81250  0.56250  0.00000  1.0000
  Pb  Pb159     1.0  0.87500  0.56250  0.00000  1.0000
  Pb  Pb160     1.0  0.93750  0.56250  0.00000  1.0000
  Pb  Pb161     1.0  0.00000  0.62500  0.00000  1.0000
  Pb  Pb162     1.0  0.06250  0.62500  0.00000  1.0000
  Pb  Pb163     1.0  0.12500  0.62500  0.00000  1.0000
  Pb  Pb164     1.0  0.18750  0.62500  0.00000  1.0000
  Pb  Pb165     1.0  0.25000  0.62500  0.00000  1.0000
  Pb  Pb166     1.0  0.31250  0.62500  0.00000  1.0000
  Pb  Pb167     1.0  0.37500  0.62500  0.00000  1.0000
  Pb  Pb168     1.0  0.43750  0.62500  0.00000  1.0000
  Pb  Pb169     1.0  0.50000  0.62500  0.00000  1.0000
  Pb  Pb170     1.0  0.56250  0.62500  0.00000  1.0000
  Pb  Pb171     1.0  0.62500  0.62500  0.00000  1.0000
  Pb  Pb172     1.0  0.68750  0.62500  0.00000  1.0000
  Pb  Pb173     1.0  0.75000  0.62500  0.00000  1.0000
  Pb  Pb174     1.0  0.81250  0.62500  0.00000  1.0000
  Pb  Pb175     1.0  0.87500  0.62500  0.00000  1.0000
  Pb  Pb176     1.0  0.93750  0.62500  0.00000  1.0000
  Pb  Pb177     1.0  0.00000  0.68750  0.00000  1.0000
  Pb  Pb178     1.0  0.06250  0.68750  0.00000  1.0000
  Pb  Pb179     1.0  0.12500  0.68750  0.00000  1.0000
  Pb  Pb180     1.0  0.18750  0.68750  0.00000  1.0000
  Pb  Pb181     1.0  0.25000  0.68750  0.00000  1.0000
  Pb  Pb182     1.0  0.31250  0.68750  0.00000  1.0000
  Pb  Pb183     1.0  0.37500  0.68750  0.00000  1.0000
  Pb  Pb184     1.0  0.43750  0.68750  0.00000  1.0000
  Pb  Pb185     1.0  0.50000  0.68750  0.00000  1.0000
  Pb  Pb186     1.0  0.56250  0.68750  0.00000  1.0000
  Pb  Pb187     1.0  0.62500  0.68750  0.00000  1.0000
  Pb  Pb188     1.0  0.68750  0.68750  0.00000  1.0000
  Pb  Pb189     1.0  0.75000  0.68750  0.00000  1.0000
  Pb  Pb190     1.0  0.81250  0.68750  0.00000  1.0000
  Pb  Pb191     1.0  0.87500  0.68750  0.00000  1.0000
  Pb  Pb192     1.0  0.93750  0.68750  0.00000  1.0000
  Pb  Pb193     1.0  0.00000  0.75000  0.00000  1.0000
  Pb  Pb194     1.0  0.06250  0.75000  0.00000  1.0000
  Pb  Pb195     1.0  0.12500  0.75000  0.00000  1.0000
  Pb  Pb196     1.0  0.18750  0.75000  0.00000  1.0000
  Pb  Pb197     1.0  0.25000  0.75000  0.00000  1.0000
  Pb  Pb198     1.0  0.31250  0.75000  0.00000  1.0000
  Pb  Pb199     1.0  0.37500  0.75000  0.00000  1.0000
  Pb  Pb200     1.0  0.43750  0.75000  0.00000  1.0000
  Pb  Pb201     1.0  0.50000  0.75000  0.00000  1.0000
  Pb  Pb202     1.0  0.56250  0.75000  0.00000  1.0000
  Pb  Pb203     1.0  0.62500  0.75000  0.00000  1.0000
  Pb  Pb204     1.0  0.68750  0.75000  0.00000  1.0000
  Pb  Pb205     1.0  0.75000  0.75000  0.00000  1.0000
  Pb  Pb206     1.0  0.81250  0.75000  0.00000  1.0000
  Pb  Pb207     1.0  0.87500  0.75000  0.00000  1.0000
  Pb  Pb208     1.0  0.93750  0.75000  0.00000  1.0000
  Pb  Pb209     1.0  0.00000  0.81250  0.00000  1.0000
  Pb  Pb210     1.0  0.06250  0.81250  0.00000  1.0000
  Pb  Pb211     1.0  0.12500  0.81250  0.00000  1.0000
  Pb  Pb212     1.0  0.18750  0.81250  0.00000  1.0000
  Pb  Pb213     1.0  0.25000  0.81250  0.00000  1.0000
  Pb  Pb214     1.0  0.31250  0.81250  0.00000  1.0000
  Pb  Pb215     1.0  0.37500  0.81250  0.00000  1.0000
  Pb  Pb216     1.0  0.43750  0.81250  0.00000  1.0000
  Pb  Pb217     1.0  0.50000  0.81250  0.00000  1.0000
  Pb  Pb218     1.0  0.56250  0.81250  0.00000  1.0000
  Pb  Pb219     1.0  0.62500  0.81250  0.00000  1.0000
  Pb  Pb220     1.0  0.68750  0.81250  0.00000  1.0000
  Pb  Pb221     1.0  0.75000  0.81250  0.00000  1.0000
  Pb  Pb222     1.0  0.81250  0.81250  0.00000  1.0000
  Pb  Pb223     1.0  0.87500  0.81250  0.00000  1.0000
  Pb  Pb224     1.0  0.93750  0.81250  0.00000  1.0000
  Pb  Pb225     1.0  0.00000  0.87500  0.00000  1.0000
  Pb  Pb226     1.0  0.06250  0.87500  0.00000  1.0000
  Pb  Pb227     1.0  0.12500  0.87500  0.00000  1.0000
  Pb  Pb228     1.0  0.18750  0.87500  0.00000  1.0000
  Pb  Pb229     1.0  0.25000  0.87500  0.00000  1.0000
  Pb  Pb230     1.0  0.31250  0.87500  0.00000  1.0000
  Pb  Pb231     1.0  0.37500  0.87500  0.00000  1.0000
  Pb  Pb232     1.0  0.43750  0.87500  0.00000  1.0000
  Pb  Pb233     1.0  0.50000  0.87500  0.00000  1.0000
  Pb  Pb234     1.0  0.56250  0.87500  0.00000  1.0000
  Pb  Pb235     1.0  0.62500  0.87500  0.00000  1.0000
  Pb  Pb236     1.0  0.68750  0.87500  0.00000  1.0000
  Pb  Pb237     1.0  0.75000  0.87500  0.00000  1.0000
  Pb  Pb238     1.0  0.81250  0.87500  0.00000  1.0000
  Pb  Pb239     1.0  0.87500  0.87500  0.00000  1.0000
  Pb  Pb240     1.0  0.93750  0.87500  0.00000  1.0000
  Pb  Pb241     1.0  0.00000  0.93750  0.00000  1.0000
  Pb  Pb242     1.0  0.06250  0.93750  0.00000  1.0000
  Pb  Pb243     1.0  0.12500  0.93750  0.00000  1.0000
  Pb  Pb244     1.0  0.18750  0.93750  0.00000  1.0000
  Pb  Pb245     1.0  0.25000  0.93750  0.00000  1.0000
  Pb  Pb246     1.0  0.31250  0.93750  0.00000  1.0000
  Pb  Pb247     1.0  0.37500  0.93750  0.00000  1.0000
  Pb  Pb248     1.0  0.43750  0.93750  0.00000  1.0000
  Pb  Pb249     1.0  0.50000  0.93750  0.00000  1.0000
  Pb  Pb250     1.0  0.56250  0.93750  0.00000  1.0000
  Pb  Pb251     1.0  0.62500  0.93750  0.00000  1.0000
  Pb  Pb252     1.0  0.68750  0.93750  0.00000  1.0000
  Pb  Pb253     1.0  0.75000  0.93750  0.00000  1.0000
  Pb  Pb254     1.0  0.81250  0.93750  0.00000  1.0000
  Pb  Pb255     1.0  0.87500  0.93750  0.00000  1.0000
  Pb  Pb256     1.0  0.93750  0.93750  0.00000  1.0000
  Pb  Pb257     1.0  0.00000  0.00000  0.50000  1.0000
  Pb  Pb258     1.0  0.06250  0.00000  0.50000  1.0000
  Pb  Pb259     1.0  0.12500  0.00000  0.50000  1.0000
  Pb  Pb260     1.0  0.18750  0.00000  0.50000  1.0000
  Pb  Pb261     1.0  0.25000  0.00000  0.50000  1.0000
  Pb  Pb262     1.0  0.31250  0.00000  0.50000  1.0000
  Pb  Pb263     1.0  0.37500  0.00000  0.50000  1.0000
  Pb  Pb264     1.0  0.43750  0.00000  0.50000  1.0000
  Pb  Pb265     1.0  0.50000  0.00000  0.50000  1.0000
  Pb  Pb266     1.0  0.56250  0.00000  0.50000  1.0000
  Pb  Pb267     1.0  0.62500  0.00000  0.50000  1.0000
  Pb  Pb268     1.0  0.68750  0.00000  0.50000  1.0000
  Pb  Pb269     1.0  0.75000  0.00000  0.50000  1.0000
  Pb  Pb270     1.0  0.81250  0.00000  0.50000  1.0000
  Pb  Pb271     1.0  0.87500  0.00000  0.50000  1.0000
  Pb  Pb272     1.0  0.93750  0.00000  0.50000  1.0000
  Pb  Pb273     1.0  0.00000  0.06250  0.50000  1.0000
  Pb  Pb274     1.0  0.06250  0.06250  0.50000  1.0000
  Pb  Pb275     1.0  0.12500  0.06250  0.50000  1.0000
  Pb  Pb276     1.0  0.18750  0.06250  0.50000  1.0000
  Pb  Pb277     1.0  0.25000  0.06250  0.50000  1.0000
  Pb  Pb278     1.0  0.31250  0.06250  0.50000  1.0000
  Pb  Pb279     1.0  0.37500  0.06250  0.50000  1.0000
  Pb  Pb280     1.0  0.43750  0.06250  0.50000  1.0000
  Pb  Pb281     1.0  0.50000  0.06250  0.50000  1.0000
  Pb  Pb282     1.0  0.56250  0.06250  0.50000  1.0000
  Pb  Pb283     1.0  0.62500  0.06250  0.50000  1.0000
  Pb  Pb284     1.0  0.68750  0.06250  0.50000  1.0000
  Pb  Pb285     1.0  0.75000  0.06250  0.50000  1.0000
  Pb  Pb286     1.0  0.81250  0.06250  0.50000  1.0000
  Pb  Pb287     1.0  0.87500  0.06250  0.50000  1.0000
  Pb  Pb288     1.0  0.93750  0.06250  0.50000  1.0000
  Pb  Pb289     1.0  0.00000  0.12500  0.50000  1.0000
  Pb  Pb290     1.0  0.06250  0.12500  0.50000  1.0000
  Pb  Pb291     1.0  0.12500  0.12500  0.50000  1.0000
  Pb  Pb292     1.0  0.18750  0.12500  0.50000  1.0000
  Pb  Pb293     1.0  0.25000  0.12500  0.50000  1.0000
  Pb  Pb294     1.0  0.31250  0.12500  0.50000  1.0000
  Pb  Pb295     1.0  0.37500  0.12500  0.50000  1.0000
  Pb  Pb296     1.0  0.43750  0.12500  0.50000  1.0000
  Pb  Pb297     1.0  0.50000  0.12500  0.50000  1.0000
  Pb  Pb298     1.0  0.56250  0.12500  0.50000  1.0000
  Pb  Pb299     1.0  0.62500  0.12500  0.50000  1.0000
  Pb  Pb300     1.0  0.68750  0.12500  0.50000  1.0000
  Pb  Pb301     1.0  0.75000  0.12500  0.50000  1.0000
  Pb  Pb302     1.0  0.81250  0.12500  0.50000  1.0000
  Pb  Pb303     1.0  0.87500  0.12500  0.50000  1.0000
  Pb  Pb304     1.0  0.93750  0.12500  0.50000  1.0000
  Pb  Pb305     1.0  0.00000  0.18750  0.50000  1.0000
  Pb  Pb306     1.0  0.06250  0.18750  0.50000  1.0000
  Pb  Pb307     1.0  0.12500  0.18750  0.50000  1.0000
  Pb  Pb308     1.0  0.18750  0.18750  0.50000  1.0000
  Pb  Pb309     1.0  0.25000  0.18750  0.50000  1.0000
  Pb  Pb310     1.0  0.31250  0.18750  0.50000  1.0000
  Pb  Pb311     1.0  0.37500  0.18750  0.50000  1.0000
  Pb  Pb312     1.0  0.43750  0.18750  0.50000  1.0000
  Pb  Pb313     1.0  0.50000  0.18750  0.50000  1.0000
  Pb  Pb314     1.0  0.56250  0.18750  0.50000  1.0000
  Pb  Pb315     1.0  0.62500  0.18750  0.50000  1.0000
  Pb  Pb316     1.0  0.68750  0.18750  0.50000  1.0000
  Pb  Pb317     1.0  0.75000  0.18750  0.50000  1.0000
  Pb  Pb318     1.0  0.81250  0.18750  0.50000  1.0000
  Pb  Pb319     1.0  0.87500  0.18750  0.50000  1.0000
  Pb  Pb320     1.0  0.93750  0.18750  0.50000  1.0000
  Pb  Pb321     1.0  0.00000  0.25000  0.50000  1.0000
  Pb  Pb322     1.0  0.06250  0.25000  0.50000  1.0000
  Pb  Pb323     1.0  0.12500  0.25000  0.50000  1.0000
  Pb  Pb324     1.0  0.18750  0.25000  0.50000  1.0000
  Pb  Pb325     1.0  0.25000  0.25000  0.50000  1.0000
  Pb  Pb326     1.0  0.31250  0.25000  0.50000  1.0000
  Pb  Pb327     1.0  0.37500  0.25000  0.50000  1.0000
  Pb  Pb328     1.0  0.43750  0.25000  0.50000  1.0000
  Pb  Pb329     1.0  0.50000  0.25000  0.50000  1.0000
  Pb  Pb330     1.0  0.56250  0.25000  0.50000  1.0000
  Pb  Pb331     1.0  0.62500  0.25000  0.50000  1.0000
  Pb  Pb332     1.0  0.68750  0.25000  0.50000  1.0000
  Pb  Pb333     1.0  0.75000  0.25000  0.50000  1.0000
  Pb  Pb334     1.0  0.81250  0.25000  0.50000  1.0000
  Pb  Pb335     1.0  0.87500  0.25000  0.50000  1.0000
  Pb  Pb336     1.0  0.93750  0.25000  0.50000  1.0000
  Pb  Pb337     1.0  0.00000  0.31250  0.50000  1.0000
  Pb  Pb338     1.0  0.06250  0.31250  0.50000  1.0000
  Pb  Pb339     1.0  0.12500  0.31250  0.50000  1.0000
  Pb  Pb340     1.0  0.18750  0.31250  0.50000  1.0000
  Pb  Pb341     1.0  0.25000  0.31250  0.50000  1.0000
  Pb  Pb342     1.0  0.31250  0.31250  0.50000  1.0000
  Pb  Pb343     1.0  0.37500  0.31250  0.50000  1.0000
  Pb  Pb344     1.0  0.43750  0.31250  0.50000  1.0000
  Pb  Pb345     1.0  0.50000  0.31250  0.50000  1.0000
  Pb  Pb346     1.0  0.56250  0.31250  0.50000  1.0000
  Pb  Pb347     1.0  0.62500  0.31250  0.50000  1.0000
  Pb  Pb348     1.0  0.68750  0.31250  0.50000  1.0000
  Pb  Pb349     1.0  0.75000  0.31250  0.50000  1.0000
  Pb  Pb350     1.0  0.81250  0.31250  0.50000  1.0000
  Pb  Pb351     1.0  0.87500  0.31250  0.50000  1.0000
  Pb  Pb352     1.0  0.93750  0.31250  0.50000  1.0000
  Pb  Pb353     1.0  0.00000  0.37500  0.50000  1.0000
  Pb  Pb354     1.0  0.06250  0.37500  0.50000  1.0000
  Pb  Pb355     1.0  0.12500  0.37500  0.50000  1.0000
  Pb  Pb356     1.0  0.18750  0.37500  0.50000  1.0000
  Pb  Pb357     1.0  0.25000  0.37500  0.50000  1.0000
  Pb  Pb358     1.0  0.31250  0.37500  0.50000  1.0000
  Pb  Pb359     1.0  0.37500  0.37500  0.50000  1.0000
  Pb  Pb360     1.0  0.43750  0.37500  0.50000  1.0000
  Pb  Pb361     1.0  0.50000  0.37500  0.50000  1.0000
  Pb  Pb362     1.0  0.56250  0.37500  0.50000  1.0000
  Pb  Pb363     1.0  0.62500  0.37500  0.50000  1.0000
  Pb  Pb364     1.0  0.68750  0.37500  0.50000  1.0000
  Pb  Pb365     1.0  0.75000  0.37500  0.50000  1.0000
  Pb  Pb366     1.0  0.81250  0.37500  0.50000  1.0000
  Pb  Pb367     1.0  0.87500  0.37500  0.50000  1.0000
  Pb  Pb368     1.0  0.93750  0.37500  0.50000  1.0000
  Pb  Pb369     1.0  0.00000  0.43750  0.50000  1.0000
  Pb  Pb370     1.0  0.06250  0.43750  0.50000  1.0000
  Pb  Pb371     1.0  0.12500  0.43750  0.50000  1.0000
  Pb  Pb372     1.0  0.18750  0.43750  0.50000  1.0000
  Pb  Pb373     1.0  0.25000  0.43750  0.50000  1.0000
  Pb  Pb374     1.0  0.31250  0.43750  0.50000  1.0000
  Pb  Pb375     1.0  0.37500  0.43750  0.50000  1.0000
  Pb  Pb376     1.0  0.43750  0.43750  0.50000  1.0000
  Pb  Pb377     1.0  0.50000  0.43750  0.50000  1.0000
  Pb  Pb378     1.0  0.56250  0.43750  0.50000  1.0000
  Pb  Pb379     1.0  0.62500  0.43750  0.50000  1.0000
  Pb  Pb380     1.0  0.68750  0.43750  0.50000  1.0000
  Pb  Pb381     1.0  0.75000  0.43750  0.50000  1.0000
  Pb  Pb382     1.0  0.81250  0.43750  0.50000  1.0000
  Pb  Pb383     1.0  0.87500  0.43750  0.50000  1.0000
  Pb  Pb384     1.0  0.93750  0.43750  0.50000  1.0000
  Pb  Pb385     1.0  0.00000  0.50000  0.50000  1.0000
  Pb  Pb386     1.0  0.06250  0.50000  0.50000  1.0000
  Pb  Pb387     1.0  0.12500  0.50000  0.50000  1.0000
  Pb  Pb388     1.0  0.18750  0.50000  0.50000  1.0000
  Pb  Pb389     1.0  0.25000  0.50000  0.50000  1.0000
  Pb  Pb390     1.0  0.31250  0.50000  0.50000  1.0000
  Pb  Pb391     1.0  0.37500  0.50000  0.50000  1.0000
  Pb  Pb392     1.0  0.43750  0.50000  0.50000  1.0000
  Pb  Pb393     1.0  0.50000  0.50000  0.50000  1.0000
  Pb  Pb394     1.0  0.56250  0.50000  0.50000  1.0000
  Pb  Pb395     1.0  0.62500  0.50000  0.50000  1.0000
  Pb  Pb396     1.0  0.68750  0.50000  0.50000  1.0000
  Pb  Pb397     1.0  0.75000  0.50000  0.50000  1.0000
  Pb  Pb398     1.0  0.81250  0.50000  0.50000  1.0000
  Pb  Pb399     1.0  0.87500  0.50000  0.50000  1.0000
  Pb  Pb400     1.0  0.93750  0.50000  0.50000  1.0000
  Pb  Pb401     1.0  0.00000  0.56250  0.50000  1.0000
  Pb  Pb402     1.0  0.06250  0.56250  0.50000  1.0000
  Pb  Pb403     1.0  0.12500  0.56250  0.50000  1.0000
  Pb  Pb404     1.0  0.18750  0.56250  0.50000  1.0000
  Pb  Pb405     1.0  0.25000  0.56250  0.50000  1.0000
  Pb  Pb406     1.0  0.31250  0.56250  0.50000  1.0000
  Pb  Pb407     1.0  0.37500  0.56250  0.50000  1.0000
  Pb  Pb408     1.0  0.43750  0.56250  0.50000  1.0000
  Pb  Pb409     1.0  0.50000  0.56250  0.50000  1.0000
  Pb  Pb410     1.0  0.56250  0.56250  0.50000  1.0000
  Pb  Pb411     1.0  0.62500  0.56250  0.50000  1.0000
  Pb  Pb412     1.0  0.68750  0.56250  0.50000  1.0000
  Pb  Pb413     1.0  0.75000  0.56250  0.50000  1.0000
  Pb  Pb414     1.0  0.81250  0.56250  0.50000  1.0000
  Pb  Pb415     1.0  0.87500  0.56250  0.50000  1.0000
  Pb  Pb416     1.0  0.93750  0.56250  0.50000  1.0000
  Pb  Pb417     1.0  0.00000  0.62500  0.50000  1.0000
  Pb  Pb418     1.0  0.06250  0.62500  0.50000  1.0000
  Pb  Pb419     1.0  0.12500  0.62500  0.50000  1.0000
  Pb  Pb420     1.0  0.18750  0.62500  0.50000  1.0000
  Pb  Pb421     1.0  0.25000  0.62500  0.50000  1.0000
  Pb  Pb422     1.0  0.31250  0.62500  0.50000  1.0000
  Pb  Pb423     1.0  0.37500  0.62500  0.50000  1.0000
  Pb  Pb424     1.0  0.43750  0.62500  0.50000  1.0000
  Pb  Pb425     1.0  0.50000  0.62500  0.50000  1.0000
  Pb  Pb426     1.0  0.56250  0.62500  0.50000  1.0000
  Pb  Pb427     1.0  0.62500  0.62500  0.50000  1.0000
  Pb  Pb428     1.0  0.68750  0.62500  0.50000  1.0000
  Pb  Pb429     1.0  0.75000  0.62500  0.50000  1.0000
  Pb  Pb430     1.0  0.81250  0.62500  0.50000  1.0000
  Pb  Pb431     1.0  0.87500  0.62500  0.50000  1.0000
  Pb  Pb432     1.0  0.93750  0.62500  0.50000  1.0000
  Pb  Pb433     1.0  0.00000  0.68750  0.50000  1.0000
  Pb  Pb434     1.0  0.06250  0.68750  0.50000  1.0000
  Pb  Pb435     1.0  0.12500  0.68750  0.50000  1.0000
  Pb  Pb436     1.0  0.18750  0.68750  0.50000  1.0000
  Pb  Pb437     1.0  0.25000  0.68750  0.50000  1.0000
  Pb  Pb438     1.0  0.31250  0.68750  0.50000  1.0000
  Pb  Pb439     1.0  0.37500  0.68750  0.50000  1.0000
  Pb  Pb440     1.0  0.43750  0.68750  0.50000  1.0000
  Pb  Pb441     1.0  0.50000  0.68750  0.50000  1.0000
  Pb  Pb442     1.0  0.56250  0.68750  0.50000  1.0000
  Pb  Pb443     1.0  0.62500  0.68750  0.50000  1.0000
  Pb  Pb444     1.0  0.68750  0.68750  0.50000  1.0000
  Pb  Pb445     1.0  0.75000  0.68750  0.50000  1.0000
  Pb  Pb446     1.0  0.81250  0.68750  0.50000  1.0000
  Pb  Pb447     1.0  0.87500  0.68750  0.50000  1.0000
  Pb  Pb448     1.0  0.93750  0.68750  0.50000  1.0000
  Pb  Pb449     1.0  0.00000  0.75000  0.50000  1.0000
  Pb  Pb450     1.0  0.06250  0.75000  0.50000  1.0000
  Pb  Pb451     1.0  0.12500  0.75000  0.50000  1.0000
  Pb  Pb452     1.0  0.18750  0.75000  0.50000  1.0000
  Pb  Pb453     1.0  0.25000  0.75000  0.50000  1.0000
  Pb  Pb454     1.0  0.31250  0.75000  0.50000  1.0000
  Pb  Pb455     1.0  0.37500  0.75000  0.50000  1.0000
  Pb  Pb456     1.0  0.43750  0.75000  0.50000  1.0000
  Pb  Pb457     1.0  0.50000  0.75000  0.50000  1.0000
  Pb  Pb458     1.0  0.56250  0.75000  0.50000  1.0000
  Pb  Pb459     1.0  0.62500  0.75000  0.50000  1.0000
  Pb  Pb460     1.0  0.68750  0.75000  0.50000  1.0000
  Pb  Pb461     1.0  0.75000  0.75000  0.50000  1.0000
  Pb  Pb462     1.0  0.81250  0.75000  0.50000  1.0000
  Pb  Pb463     1.0  0.87500  0.75000  0.50000  1.0000
  Pb  Pb464     1.0  0.93750  0.75000  0.50000  1.0000
  Pb  Pb465     1.0  0.00000  0.81250  0.50000  1.0000
  Pb  Pb466     1.0  0.06250  0.81250  0.50000  1.0000
  Pb  Pb467     1.0  0.12500  0.81250  0.50000  1.0000
  Pb  Pb468     1.0  0.18750  0.81250  0.50000  1.0000
  Pb  Pb469     1.0  0.25000  0.81250  0.50000  1.0000
  Pb  Pb470     1.0  0.31250  0.81250  0.50000  1.0000
  Pb  Pb471     1.0  0.37500  0.81250  0.50000  1.0000
  Pb  Pb472     1.0  0.43750  0.81250  0.50000  1.0000
  Pb  Pb473     1.0  0.50000  0.81250  0.50000  1.0000
  Pb  Pb474     1.0  0.56250  0.81250  0.50000  1.0000
  Pb  Pb475     1.0  0.62500  0.81250  0.50000  1.0000
  Pb  Pb476     1.0  0.68750  0.81250  0.50000  1.0000
  Pb  Pb477     1.0  0.75000  0.81250  0.50000  1.0000
  Pb  Pb478     1.0  0.81250  0.81250  0.50000  1.0000
  Pb  Pb479     1.0  0.87500  0.81250  0.50000  1.0000
  Pb  Pb480     1.0  0.93750  0.81250  0.50000  1.0000
  Pb  Pb481     1.0  0.00000  0.87500  0.50000  1.0000
  Pb  Pb482     1.0  0.06250  0.87500  0.50000  1.0000
  Pb  Pb483     1.0  0.12500  0.87500  0.50000  1.0000
  Pb  Pb484     1.0  0.18750  0.87500  0.50000  1.0000
  Pb  Pb485     1.0  0.25000  0.87500  0.50000  1.0000
  Pb  Pb486     1.0  0.31250  0.87500  0.50000  1.0000
  Pb  Pb487     1.0  0.37500  0.87500  0.50000  1.0000
  Pb  Pb488     1.0  0.43750  0.87500  0.50000  1.0000
  Pb  Pb489     1.0  0.50000  0.87500  0.50000  1.0000
  Pb  Pb490     1.0  0.56250  0.87500  0.50000  1.0000
  Pb  Pb491     1.0  0.62500  0.87500  0.50000  1.0000
  Pb  Pb492     1.0  0.68750  0.87500  0.50000  1.0000
  Pb  Pb493     1.0  0.75000  0.87500  0.50000  1.0000
  Pb  Pb494     1.0  0.81250  0.87500  0.50000  1.0000
  Pb  Pb495     1.0  0.87500  0.87500  0.50000  1.0000
  Pb  Pb496     1.0  0.93750  0.87500  0.50000  1.0000
  Pb  Pb497     1.0  0.00000  0.93750  0.50000  1.0000
  Pb  Pb498     1.0  0.06250  0.93750  0.50000  1.0000
  Pb  Pb499     1.0  0.12500  0.93750  0.50000  1.0000
  Pb  Pb500     1.0  0.18750  0.93750  0.50000  1.0000
  Pb  Pb501     1.0  0.25000  0.93750  0.50000  1.0000
  Pb  Pb502     1.0  0.31250  0.93750  0.50000  1.0000
  Pb  Pb503     1.0  0.37500  0.93750  0.50000  1.0000
  Pb  Pb504     1.0  0.43750  0.93750  0.50000  1.0000
  Pb  Pb505     1.0  0.50000  0.93750  0.50000  1.0000
  Pb  Pb506     1.0  0.56250  0.93750  0.50000  1.0000
  Pb  Pb507     1.0  0.62500  0.93750  0.50000  1.0000
  Pb  Pb508     1.0  0.68750  0.93750  0.50000  1.0000
  Pb  Pb509     1.0  0.75000  0.93750  0.50000  1.0000
  Pb  Pb510     1.0  0.81250  0.93750  0.50000  1.0000
  Pb  Pb511     1.0  0.87500  0.93750  0.50000  1.0000
  Pb  Pb512     1.0  0.93750  0.93750  0.50000  1.0000
  Ti  Ti1       1.0  0.03125  0.03125  0.25000  1.0000
  Ti  Ti2       1.0  0.09375  0.03125  0.25000  1.0000
  Ti  Ti3       1.0  0.15625  0.03125  0.25000  1.0000
  Ti  Ti4       1.0  0.21875  0.03125  0.25000  1.0000
  Ti  Ti5       1.0  0.28125  0.03125  0.25000  1.0000
  Ti  Ti6       1.0  0.34375  0.03125  0.25000  1.0000
  Ti  Ti7       1.0  0.40625  0.03125  0.25000  1.0000
  Ti  Ti8       1.0  0.46875  0.03125  0.25000  1.0000
  Ti  Ti9       1.0  0.53125  0.03125  0.25000  1.0000
  Ti  Ti10      1.0  0.59375  0.03125  0.25000  1.0000
  Ti  Ti11      1.0  0.65625  0.03125  0.25000  1.0000
  Ti  Ti12      1.0  0.71875  0.03125  0.25000  1.0000
  Ti  Ti13      1.0  0.78125  0.03125  0.25000  1.0000
  Ti  Ti14      1.0  0.84375  0.03125  0.25000  1.0000
  Ti  Ti15      1.0  0.90625  0.03125  0.25000  1.0000
  Ti  Ti16      1.0  0.96875  0.03125  0.25000  1.0000
  Ti  Ti17      1.0  0.03125  0.09375  0.25000  1.0000
  Ti  Ti18      1.0  0.09375  0.09375  0.25000  1.0000
  Ti  Ti19      1.0  0.15625  0.09375  0.25000  1.0000
  Ti  Ti20      1.0  0.21875  0.09375  0.25000  1.0000
  Ti  Ti21      1.0  0.28125  0.09375  0.25000  1.0000
  Ti  Ti22      1.0  0.34375  0.09375  0.25000  1.0000
  Ti  Ti23      1.0  0.40625  0.09375  0.25000  1.0000
  Ti  Ti24      1.0  0.46875  0.09375  0.25000  1.0000
  Ti  Ti25      1.0  0.53125  0.09375  0.25000  1.0000
  Ti  Ti26      1.0  0.59375  0.09375  0.25000  1.0000
  Ti  Ti27      1.0  0.65625  0.09375  0.25000  1.0000
  Ti  Ti28      1.0  0.71875  0.09375  0.25000  1.0000
  Ti  Ti29      1.0  0.78125  0.09375  0.25000  1.0000
  Ti  Ti30      1.0  0.84375  0.09375  0.25000  1.0000
  Ti  Ti31      1.0  0.90625  0.09375  0.25000  1.0000
  Ti  Ti32      1.0  0.96875  0.09375  0.25000  1.0000
  Ti  Ti33      1.0  0.03125  0.15625  0.25000  1.0000
  Ti  Ti34      1.0  0.09375  0.15625  0.25000  1.0000
  Ti  Ti35      1.0  0.15625  0.15625  0.25000  1.0000
  Ti  Ti36      1.0  0.21875  0.15625  0.25000  1.0000
  Ti  Ti37      1.0  0.28125  0.15625  0.25000  1.0000
  Ti  Ti38      1.0  0.34375  0.15625  0.25000  1.0000
  Ti  Ti39      1.0  0.40625  0.15625  0.25000  1.0000
  Ti  Ti40      1.0  0.46875  0.15625  0.25000  1.0000
  Ti  Ti41      1.0  0.53125  0.15625  0.25000  1.0000
  Ti  Ti42      1.0  0.59375  0.15625  0.25000  1.0000
  Ti  Ti43      1.0  0.65625  0.15625  0.25000  1.0000
  Ti  Ti44      1.0  0.71875  0.15625  0.25000  1.0000
  Ti  Ti45      1.0  0.78125  0.15625  0.25000  1.0000
  Ti  Ti46      1.0  0.84375  0.15625  0.25000  1.0000
  Ti  Ti47      1.0  0.90625  0.15625  0.25000  1.0000
  Ti  Ti48      1.0  0.96875  0.15625  0.25000  1.0000
  Ti  Ti49      1.0  0.03125  0.21875  0.25000  1.0000
  Ti  Ti50      1.0  0.09375  0.21875  0.25000  1.0000
  Ti  Ti51      1.0  0.15625  0.21875  0.25000  1.0000
  Ti  Ti52      1.0  0.21875  0.21875  0.25000  1.0000
  Ti  Ti53      1.0  0.28125  0.21875  0.25000  1.0000
  Ti  Ti54      1.0  0.34375  0.21875  0.25000  1.0000
  Ti  Ti55      1.0  0.40625  0.21875  0.25000  1.0000
  Ti  Ti56      1.0  0.46875  0.21875  0.25000  1.0000
  Ti  Ti57      1.0  0.53125  0.21875  0.25000  1.0000
  Ti  Ti58      1.0  0.59375  0.21875  0.25000  1.0000
  Ti  Ti59      1.0  0.65625  0.21875  0.25000  1.0000
  Ti  Ti60      1.0  0.71875  0.21875  0.25000  1.0000
  Ti  Ti61      1.0  0.78125  0.21875  0.25000  1.0000
  Ti  Ti62      1.0  0.84375  0.21875  0.25000  1.0000
  Ti  Ti63      1.0  0.90625  0.21875  0.25000  1.0000
  Ti  Ti64      1.0  0.96875  0.21875  0.25000  1.0000
  Ti  Ti65      1.0  0.03125  0.28125  0.25000  1.0000
  Ti  Ti66      1.0  0.09375  0.28125  0.25000  1.0000
  Ti  Ti67      1.0  0.15625  0.28125  0.25000  1.0000
  Ti  Ti68      1.0  0.21875  0.28125  0.25000  1.0000
  Ti  Ti69      1.0  0.28125  0.28125  0.25000  1.0000
  Ti  Ti70      1.0  0.34375  0.28125  0.25000  1.0000
  Ti  Ti71      1.0  0.40625  0.28125  0.25000  1.0000
  Ti  Ti72      1.0  0.46875  0.28125  0.25000  1.0000
  Ti  Ti73      1.0  0.53125  0.28125  0.25000  1.0000
  Ti  Ti74      1.0  0.59375  0.28125  0.25000  1.0000
  Ti  Ti75      1.0  0.65625  0.28125  0.25000  1.0000
  Ti  Ti76      1.0  0.71875  0.28125  0.25000  1.0000
  Ti  Ti77      1.0  0.78125  0.28125  0.25000  1.0000
  Ti  Ti78      1.0  0.84375  0.28125  0.25000  1.0000
  Ti  Ti79      1.0  0.90625  0.28125  0.25000  1.0000
  Ti  Ti80      1.0  0.96875  0.28125  0.25000  1.0000
  Ti  Ti81      1.0  0.03125  0.34375  0.25000  1.0000
  Ti  Ti82      1.0  0.09375  0.34375  0.25000  1.0000
  Ti  Ti83      1.0  0.15625  0.34375  0.25000  1.0000
  Ti  Ti84      1.0  0.21875  0.34375  0.25000  1.0000
  Ti  Ti85      1.0  0.28125  0.34375  0.25000  1.0000
  Ti  Ti86      1.0  0.34375  0.34375  0.25000  1.0000
  Ti  Ti87      1.0  0.40625  0.34375  0.25000  1.0000
  Ti  Ti88      1.0  0.46875  0.34375  0.25000  1.0000
  Ti  Ti89      1.0  0.53125  0.34375  0.25000  1.0000
  Ti  Ti90      1.0  0.59375  0.34375  0.25000  1.0000
  Ti  Ti91      1.0  0.65625  0.34375  0.25000  1.0000
  Ti  Ti92      1.0  0.71875  0.34375  0.25000  1.0000
  Ti  Ti93      1.0  0.78125  0.34375  0.25000  1.0000
  Ti  Ti94      1.0  0.84375  0.34375  0.25000  1.0000
  Ti  Ti95      1.0  0.90625  0.34375  0.25000  1.0000
  Ti  Ti96      1.0  0.96875  0.34375  0.25000  1.0000
  Ti  Ti97      1.0  0.03125  0.40625  0.25000  1.0000
  Ti  Ti98      1.0  0.09375  0.40625  0.25000  1.0000
  Ti  Ti99      1.0  0.15625  0.40625  0.25000  1.0000
  Ti  Ti100     1.0  0.21875  0.40625  0.25000  1.0000
  Ti  Ti101     1.0  0.28125  0.40625  0.25000  1.0000
  Ti  Ti102     1.0  0.34375  0.40625  0.25000  1.0000
  Ti  Ti103     1.0  0.40625  0.40625  0.25000  1.0000
  Ti  Ti104     1.0  0.46875  0.40625  0.25000  1.0000
  Ti  Ti105     1.0  0.53125  0.40625  0.25000  1.0000
  Ti  Ti106     1.0  0.59375  0.40625  0.25000  1.0000
  Ti  Ti107     1.0  0.65625  0.40625  0.25000  1.0000
  Ti  Ti108     1.0  0.71875  0.40625  0.25000  1.0000
  Ti  Ti109     1.0  0.78125  0.40625  0.25000  1.0000
  Ti  Ti110     1.0  0.84375  0.40625  0.25000  1.0000
  Ti  Ti111     1.0  0.90625  0.40625  0.25000  1.0000
  Ti  Ti112     1.0  0.96875  0.40625  0.25000  1.0000
  Ti  Ti113     1.0  0.03125  0.46875  0.25000  1.0000
  Ti  Ti114     1.0  0.09375  0.46875  0.25000  1.0000
  Ti  Ti115     1.0  0.15625  0.46875  0.25000  1.0000
  Ti  Ti116     1.0  0.21875  0.46875  0.25000  1.0000
  Ti  Ti117     1.0  0.28125  0.46875  0.25000  1.0000
  Ti  Ti118     1.0  0.34375  0.46875  0.25000  1.0000
  Ti  Ti119     1.0  0.40625  0.46875  0.25000  1.0000
  Ti  Ti120     1.0  0.46875  0.46875  0.25000  1.0000
  Ti  Ti121     1.0  0.53125  0.46875  0.25000  1.0000
  Ti  Ti122     1.0  0.59375  0.46875  0.25000  1.0000
  Ti  Ti123     1.0  0.65625  0.46875  0.25000  1.0000
  Ti  Ti124     1.0  0.71875  0.46875  0.25000  1.0000
  Ti  Ti125     1.0  0.78125  0.46875  0.25000  1.0000
  Ti  Ti126     1.0  0.84375  0.46875  0.25000  1.0000
  Ti  Ti127     1.0  0.90625  0.46875  0.25000  1.0000
  Ti  Ti128     1.0  0.96875  0.46875  0.25000  1.0000
  Ti  Ti129     1.0  0.03125  0.53125  0.25000  1.0000
  Ti  Ti130     1.0  0.09375  0.53125  0.25000  1.0000
  Ti  Ti131     1.0  0.15625  0.53125  0.25000  1.0000
  Ti  Ti132     1.0  0.21875  0.53125  0.25000  1.0000
  Ti  Ti133     1.0  0.28125  0.53125  0.25000  1.0000
  Ti  Ti134     1.0  0.34375  0.53125  0.25000  1.0000
  Ti  Ti135     1.0  0.40625  0.53125  0.25000  1.0000
  Ti  Ti136     1.0  0.46875  0.53125  0.25000  1.0000
  Ti  Ti137     1.0  0.53125  0.53125  0.25000  1.0000
  Ti  Ti138     1.0  0.59375  0.53125  0.25000  1.0000
  Ti  Ti139     1.0  0.65625  0.53125  0.25000  1.0000
  Ti  Ti140     1.0  0.71875  0.53125  0.25000  1.0000
  Ti  Ti141     1.0  0.78125  0.53125  0.25000  1.0000
  Ti  Ti142     1.0  0.84375  0.53125  0.25000  1.0000
  Ti  Ti143     1.0  0.90625  0.53125  0.25000  1.0000
  Ti  Ti144     1.0  0.96875  0.53125  0.25000  1.0000
  Ti  Ti145     1.0  0.03125  0.59375  0.25000  1.0000
  Ti  Ti146     1.0  0.09375  0.59375  0.25000  1.0000
  Ti  Ti147     1.0  0.15625  0.59375  0.25000  1.0000
  Ti  Ti148     1.0  0.21875  0.59375  0.25000  1.0000
  Ti  Ti149     1.0  0.28125  0.59375  0.25000  1.0000
  Ti  Ti150     1.0  0.34375  0.59375  0.25000  1.0000
  Ti  Ti151     1.0  0.40625  0.59375  0.25000  1.0000
  Ti  Ti152     1.0  0.46875  0.59375  0.25000  1.0000
  Ti  Ti153     1.0  0.53125  0.59375  0.25000  1.0000
  Ti  Ti154     1.0  0.59375  0.59375  0.25000  1.0000
  Ti  Ti155     1.0  0.65625  0.59375  0.25000  1.0000
  Ti  Ti156     1.0  0.71875  0.59375  0.25000  1.0000
  Ti  Ti157     1.0  0.78125  0.59375  0.25000  1.0000
  Ti  Ti158     1.0  0.84375  0.59375  0.25000  1.0000
  Ti  Ti159     1.0  0.90625  0.59375  0.25000  1.0000
  Ti  Ti160     1.0  0.96875  0.59375  0.25000  1.0000
  Ti  Ti161     1.0  0.03125  0.65625  0.25000  1.0000
  Ti  Ti162     1.0  0.09375  0.65625  0.25000  1.0000
  Ti  Ti163     1.0  0.15625  0.65625  0.25000  1.0000
  Ti  Ti164     1.0  0.21875  0.65625  0.25000  1.0000
  Ti  Ti165     1.0  0.28125  0.65625  0.25000  1.0000
  Ti  Ti166     1.0  0.34375  0.65625  0.25000  1.0000
  Ti  Ti167     1.0  0.40625  0.65625  0.25000  1.0000
  Ti  Ti168     1.0  0.46875  0.65625  0.25000  1.0000
  Ti  Ti169     1.0  0.53125  0.65625  0.25000  1.0000
  Ti  Ti170     1.0  0.59375  0.65625  0.25000  1.0000
  Ti  Ti171     1.0  0.65625  0.65625  0.25000  1.0000
  Ti  Ti172     1.0  0.71875  0.65625  0.25000  1.0000
  Ti  Ti173     1.0  0.78125  0.65625  0.25000  1.0000
  Ti  Ti174     1.0  0.84375  0.65625  0.25000  1.0000
  Ti  Ti175     1.0  0.90625  0.65625  0.25000  1.0000
  Ti  Ti176     1.0  0.96875  0.65625  0.25000  1.0000
  Ti  Ti177     1.0  0.03125  0.71875  0.25000  1.0000
  Ti  Ti178     1.0  0.09375  0.71875  0.25000  1.0000
  Ti  Ti179     1.0  0.15625  0.71875  0.25000  1.0000
  Ti  Ti180     1.0  0.21875  0.71875  0.25000  1.0000
  Ti  Ti181     1.0  0.28125  0.71875  0.25000  1.0000
  Ti  Ti182     1.0  0.34375  0.71875  0.25000  1.0000
  Ti  Ti183     1.0  0.40625  0.71875  0.25000  1.0000
  Ti  Ti184     1.0  0.46875  0.71875  0.25000  1.0000
  Ti  Ti185     1.0  0.53125  0.71875  0.25000  1.0000
  Ti  Ti186     1.0  0.59375  0.71875  0.25000  1.0000
  Ti  Ti187     1.0  0.65625  0.71875  0.25000  1.0000
  Ti  Ti188     1.0  0.71875  0.71875  0.25000  1.0000
  Ti  Ti189     1.0  0.78125  0.71875  0.25000  1.0000
  Ti  Ti190     1.0  0.84375  0.71875  0.25000  1.0000
  Ti  Ti191     1.0  0.90625  0.71875  0.25000  1.0000
  Ti  Ti192     1.0  0.96875  0.71875  0.25000  1.0000
  Ti  Ti193     1.0  0.03125  0.78125  0.25000  1.0000
  Ti  Ti194     1.0  0.09375  0.78125  0.25000  1.0000
  Ti  Ti195     1.0  0.15625  0.78125  0.25000  1.0000
  Ti  Ti196     1.0  0.21875  0.78125  0.25000  1.0000
  Ti  Ti197     1.0  0.28125  0.78125  0.25000  1.0000
  Ti  Ti198     1.0  0.34375  0.78125  0.25000  1.0000
  Ti  Ti199     1.0  0.40625  0.78125  0.25000  1.0000
  Ti  Ti200     1.0  0.46875  0.78125  0.25000  1.0000
  Ti  Ti201     1.0  0.53125  0.78125  0.25000  1.0000
  Ti  Ti202     1.0  0.59375  0.78125  0.25000  1.0000
  Ti  Ti203     1.0  0.65625  0.78125  0.25000  1.0000
  Ti  Ti204     1.0  0.71875  0.78125  0.25000  1.0000
  Ti  Ti205     1.0  0.78125  0.78125  0.25000  1.0000
  Ti  Ti206     1.0  0.84375  0.78125  0.25000  1.0000
  Ti  Ti207     1.0  0.90625  0.78125  0.25000  1.0000
  Ti  Ti208     1.0  0.96875  0.78125  0.25000  1.0000
  Ti  Ti209     1.0  0.03125  0.84375  0.25000  1.0000
  Ti  Ti210     1.0  0.09375  0.84375  0.25000  1.0000
  Ti  Ti211     1.0  0.15625  0.84375  0.25000  1.0000
  Ti  Ti212     1.0  0.21875  0.84375  0.25000  1.0000
  Ti  Ti213     1.0  0.28125  0.84375  0.25000  1.0000
  Ti  Ti214     1.0  0.34375  0.84375  0.25000  1.0000
  Ti  Ti215     1.0  0.40625  0.84375  0.25000  1.0000
  Ti  Ti216     1.0  0.46875  0.84375  0.25000  1.0000
  Ti  Ti217     1.0  0.53125  0.84375  0.25000  1.0000
  Ti  Ti218     1.0  0.59375  0.84375  0.25000  1.0000
  Ti  Ti219     1.0  0.65625  0.84375  0.25000  1.0000
  Ti  Ti220     1.0  0.71875  0.84375  0.25000  1.0000
  Ti  Ti221     1.0  0.78125  0.84375  0.25000  1.0000
  Ti  Ti222     1.0  0.84375  0.84375  0.25000  1.0000
  Ti  Ti223     1.0  0.90625  0.84375  0.25000  1.0000
  Ti  Ti224     1.0  0.96875  0.84375  0.25000  1.0000
  Ti  Ti225     1.0  0.03125  0.90625  0.25000  1.0000
  Ti  Ti226     1.0  0.09375  0.90625  0.25000  1.0000
  Ti  Ti227     1.0  0.15625  0.90625  0.25000  1.0000
  Ti  Ti228     1.0  0.21875  0.90625  0.25000  1.0000
  Ti  Ti229     1.0  0.28125  0.90625  0.25000  1.0000
  Ti  Ti230     1.0  0.34375  0.90625  0.25000  1.0000
  Ti  Ti231     1.0  0.40625  0.90625  0.25000  1.0000
  Ti  Ti232     1.0  0.46875  0.90625  0.25000  1.0000
  Ti  Ti233     1.0  0.53125  0.90625  0.25000  1.0000
  Ti  Ti234     1.0  0.59375  0.90625  0.25000  1.0000
  Ti  Ti235     1.0  0.65625  0.90625  0.25000  1.0000
  Ti  Ti236     1.0  0.71875  0.90625  0.25000  1.0000
  Ti  Ti237     1.0  0.78125  0.90625  0.25000  1.0000
  Ti  Ti238     1.0  0.84375  0.90625  0.25000  1.0000
  Ti  Ti239     1.0  0.90625  0.90625  0.25000  1.0000
  Ti  Ti240     1.0  0.96875  0.90625  0.25000  1.0000
  Ti  Ti241     1.0  0.03125  0.96875  0.25000  1.0000
  Ti  Ti242     1.0  0.09375  0.96875  0.25000  1.0000
  Ti  Ti243     1.0  0.15625  0.96875  0.25000  1.0000
  Ti  Ti244     1.0  0.21875  0.96875  0.25000  1.0000
  Ti  Ti245     1.0  0.28125  0.96875  0.25000  1.0000
  Ti  Ti246     1.0  0.34375  0.96875  0.25000  1.0000
  Ti  Ti247     1.0  0.40625  0.96875  0.25000  1.0000
  Ti  Ti248     1.0  0.46875  0.96875  0.25000  1.0000
  Ti  Ti249     1.0  0.53125  0.96875  0.25000  1.0000
  Ti  Ti250     1.0  0.59375  0.96875  0.25000  1.0000
  Ti  Ti251     1.0  0.65625  0.96875  0.25000  1.0000
  Ti  Ti252     1.0  0.71875  0.96875  0.25000  1.0000
  Ti  Ti253     1.0  0.78125  0.96875  0.25000  1.0000
  Ti  Ti254     1.0  0.84375  0.96875  0.25000  1.0000
  Ti  Ti255     1.0  0.90625  0.96875  0.25000  1.0000
  Ti  Ti256     1.0  0.96875  0.96875  0.25000  1.0000
  Ti  Ti257     1.0  0.03125  0.03125  0.75000  1.0000
  Ti  Ti258     1.0  0.09375  0.03125  0.75000  1.0000
  Ti  Ti259     1.0  0.15625  0.03125  0.75000  1.0000
  Ti  Ti260     1.0  0.21875  0.03125  0.75000  1.0000
  Ti  Ti261     1.0  0.28125  0.03125  0.75000  1.0000
  Ti  Ti262     1.0  0.34375  0.03125  0.75000  1.0000
  Ti  Ti263     1.0  0.40625  0.03125  0.75000  1.0000
  Ti  Ti264     1.0  0.46875  0.03125  0.75000  1.0000
  Ti  Ti265     1.0  0.53125  0.03125  0.75000  1.0000
  Ti  Ti266     1.0  0.59375  0.03125  0.75000  1.0000
  Ti  Ti267     1.0  0.65625  0.03125  0.75000  1.0000
  Ti  Ti268     1.0  0.71875  0.03125  0.75000  1.0000
  Ti  Ti269     1.0  0.78125  0.03125  0.75000  1.0000
  Ti  Ti270     1.0  0.84375  0.03125  0.75000  1.0000
  Ti  Ti271     1.0  0.90625  0.03125  0.75000  1.0000
  Ti  Ti272     1.0  0.96875  0.03125  0.75000  1.0000
  Ti  Ti273     1.0  0.03125  0.09375  0.75000  1.0000
  Ti  Ti274     1.0  0.09375  0.09375  0.75000  1.0000
  Ti  Ti275     1.0  0.15625  0.09375  0.75000  1.0000
  Ti  Ti276     1.0  0.21875  0.09375  0.75000  1.0000
  Ti  Ti277     1.0  0.28125  0.09375  0.75000  1.0000
  Ti  Ti278     1.0  0.34375  0.09375  0.75000  1.0000
  Ti  Ti279     1.0  0.40625  0.09375  0.75000  1.0000
  Ti  Ti280     1.0  0.46875  0.09375  0.75000  1.0000
  Ti  Ti281     1.0  0.53125  0.09375  0.75000  1.0000
  Ti  Ti282     1.0  0.59375  0.09375  0.75000  1.0000
  Ti  Ti283     1.0  0.65625  0.09375  0.75000  1.0000
  Ti  Ti284     1.0  0.71875  0.09375  0.75000  1.0000
  Ti  Ti285     1.0  0.78125  0.09375  0.75000  1.0000
  Ti  Ti286     1.0  0.84375  0.09375  0.75000  1.0000
  Ti  Ti287     1.0  0.90625  0.09375  0.75000  1.0000
  Ti  Ti288     1.0  0.96875  0.09375  0.75000  1.0000
  Ti  Ti289     1.0  0.03125  0.15625  0.75000  1.0000
  Ti  Ti290     1.0  0.09375  0.15625  0.75000  1.0000
  Ti  Ti291     1.0  0.15625  0.15625  0.75000  1.0000
  Ti  Ti292     1.0  0.21875  0.15625  0.75000  1.0000
  Ti  Ti293     1.0  0.28125  0.15625  0.75000  1.0000
  Ti  Ti294     1.0  0.34375  0.15625  0.75000  1.0000
  Ti  Ti295     1.0  0.40625  0.15625  0.75000  1.0000
  Ti  Ti296     1.0  0.46875  0.15625  0.75000  1.0000
  Ti  Ti297     1.0  0.53125  0.15625  0.75000  1.0000
  Ti  Ti298     1.0  0.59375  0.15625  0.75000  1.0000
  Ti  Ti299     1.0  0.65625  0.15625  0.75000  1.0000
  Ti  Ti300     1.0  0.71875  0.15625  0.75000  1.0000
  Ti  Ti301     1.0  0.78125  0.15625  0.75000  1.0000
  Ti  Ti302     1.0  0.84375  0.15625  0.75000  1.0000
  Ti  Ti303     1.0  0.90625  0.15625  0.75000  1.0000
  Ti  Ti304     1.0  0.96875  0.15625  0.75000  1.0000
  Ti  Ti305     1.0  0.03125  0.21875  0.75000  1.0000
  Ti  Ti306     1.0  0.09375  0.21875  0.75000  1.0000
  Ti  Ti307     1.0  0.15625  0.21875  0.75000  1.0000
  Ti  Ti308     1.0  0.21875  0.21875  0.75000  1.0000
  Ti  Ti309     1.0  0.28125  0.21875  0.75000  1.0000
  Ti  Ti310     1.0  0.34375  0.21875  0.75000  1.0000
  Ti  Ti311     1.0  0.40625  0.21875  0.75000  1.0000
  Ti  Ti312     1.0  0.46875  0.21875  0.75000  1.0000
  Ti  Ti313     1.0  0.53125  0.21875  0.75000  1.0000
  Ti  Ti314     1.0  0.59375  0.21875  0.75000  1.0000
  Ti  Ti315     1.0  0.65625  0.21875  0.75000  1.0000
  Ti  Ti316     1.0  0.71875  0.21875  0.75000  1.0000
  Ti  Ti317     1.0  0.78125  0.21875  0.75000  1.0000
  Ti  Ti318     1.0  0.84375  0.21875  0.75000  1.0000
  Ti  Ti319     1.0  0.90625  0.21875  0.75000  1.0000
  Ti  Ti320     1.0  0.96875  0.21875  0.75000  1.0000
  Ti  Ti321     1.0  0.03125  0.28125  0.75000  1.0000
  Ti  Ti322     1.0  0.09375  0.28125  0.75000  1.0000
  Ti  Ti323     1.0  0.15625  0.28125  0.75000  1.0000
  Ti  Ti324     1.0  0.21875  0.28125  0.75000  1.0000
  Ti  Ti325     1.0  0.28125  0.28125  0.75000  1.0000
  Ti  Ti326     1.0  0.34375  0.28125  0.75000  1.0000
  Ti  Ti327     1.0  0.40625  0.28125  0.75000  1.0000
  Ti  Ti328     1.0  0.46875  0.28125  0.75000  1.0000
  Ti  Ti329     1.0  0.53125  0.28125  0.75000  1.0000
  Ti  Ti330     1.0  0.59375  0.28125  0.75000  1.0000
  Ti  Ti331     1.0  0.65625  0.28125  0.75000  1.0000
  Ti  Ti332     1.0  0.71875  0.28125  0.75000  1.0000
  Ti  Ti333     1.0  0.78125  0.28125  0.75000  1.0000
  Ti  Ti334     1.0  0.84375  0.28125  0.75000  1.0000
  Ti  Ti335     1.0  0.90625  0.28125  0.75000  1.0000
  Ti  Ti336     1.0  0.96875  0.28125  0.75000  1.0000
  Ti  Ti337     1.0  0.03125  0.34375  0.75000  1.0000
  Ti  Ti338     1.0  0.09375  0.34375  0.75000  1.0000
  Ti  Ti339     1.0  0.15625  0.34375  0.75000  1.0000
  Ti  Ti340     1.0  0.21875  0.34375  0.75000  1.0000
  Ti  Ti341     1.0  0.28125  0.34375  0.75000  1.0000
  Ti  Ti342     1.0  0.34375  0.34375  0.75000  1.0000
  Ti  Ti343     1.0  0.40625  0.34375  0.75000  1.0000
  Ti  Ti344     1.0  0.46875  0.34375  0.75000  1.0000
  Ti  Ti345     1.0  0.53125  0.34375  0.75000  1.0000
  Ti  Ti346     1.0  0.59375  0.34375  0.75000  1.0000
  Ti  Ti347     1.0  0.65625  0.34375  0.75000  1.0000
  Ti  Ti348     1.0  0.71875  0.34375  0.75000  1.0000
  Ti  Ti349     1.0  0.78125  0.34375  0.75000  1.0000
  Ti  Ti350     1.0  0.84375  0.34375  0.75000  1.0000
  Ti  Ti351     1.0  0.90625  0.34375  0.75000  1.0000
  Ti  Ti352     1.0  0.96875  0.34375  0.75000  1.0000
  Ti  Ti353     1.0  0.03125  0.40625  0.75000  1.0000
  Ti  Ti354     1.0  0.09375  0.40625  0.75000  1.0000
  Ti  Ti355     1.0  0.15625  0.40625  0.75000  1.0000
  Ti  Ti356     1.0  0.21875  0.40625  0.75000  1.0000
  Ti  Ti357     1.0  0.28125  0.40625  0.75000  1.0000
  Ti  Ti358     1.0  0.34375  0.40625  0.75000  1.0000
  Ti  Ti359     1.0  0.40625  0.40625  0.75000  1.0000
  Ti  Ti360     1.0  0.46875  0.40625  0.75000  1.0000
  Ti  Ti361     1.0  0.53125  0.40625  0.75000  1.0000
  Ti  Ti362     1.0  0.59375  0.40625  0.75000  1.0000
  Ti  Ti363     1.0  0.65625  0.40625  0.75000  1.0000
  Ti  Ti364     1.0  0.71875  0.40625  0.75000  1.0000
  Ti  Ti365     1.0  0.78125  0.40625  0.75000  1.0000
  Ti  Ti366     1.0  0.84375  0.40625  0.75000  1.0000
  Ti  Ti367     1.0  0.90625  0.40625  0.75000  1.0000
  Ti  Ti368     1.0  0.96875  0.40625  0.75000  1.0000
  Ti  Ti369     1.0  0.03125  0.46875  0.75000  1.0000
  Ti  Ti370     1.0  0.09375  0.46875  0.75000  1.0000
  Ti  Ti371     1.0  0.15625  0.46875  0.75000  1.0000
  Ti  Ti372     1.0  0.21875  0.46875  0.75000  1.0000
  Ti  Ti373     1.0  0.28125  0.46875  0.75000  1.0000
  Ti  Ti374     1.0  0.34375  0.46875  0.75000  1.0000
  Ti  Ti375     1.0  0.40625  0.46875  0.75000  1.0000
  Ti  Ti376     1.0  0.46875  0.46875  0.75000  1.0000
  Ti  Ti377     1.0  0.53125  0.46875  0.75000  1.0000
  Ti  Ti378     1.0  0.59375  0.46875  0.75000  1.0000
  Ti  Ti379     1.0  0.65625  0.46875  0.75000  1.0000
  Ti  Ti380     1.0  0.71875  0.46875  0.75000  1.0000
  Ti  Ti381     1.0  0.78125  0.46875  0.75000  1.0000
  Ti  Ti382     1.0  0.84375  0.46875  0.75000  1.0000
  Ti  Ti383     1.0  0.90625  0.46875  0.75000  1.0000
  Ti  Ti384     1.0  0.96875  0.46875  0.75000  1.0000
  Ti  Ti385     1.0  0.03125  0.53125  0.75000  1.0000
  Ti  Ti386     1.0  0.09375  0.53125  0.75000  1.0000
  Ti  Ti387     1.0  0.15625  0.53125  0.75000  1.0000
  Ti  Ti388     1.0  0.21875  0.53125  0.75000  1.0000
  Ti  Ti389     1.0  0.28125  0.53125  0.75000  1.0000
  Ti  Ti390     1.0  0.34375  0.53125  0.75000  1.0000
  Ti  Ti391     1.0  0.40625  0.53125  0.75000  1.0000
  Ti  Ti392     1.0  0.46875  0.53125  0.75000  1.0000
  Ti  Ti393     1.0  0.53125  0.53125  0.75000  1.0000
  Ti  Ti394     1.0  0.59375  0.53125  0.75000  1.0000
  Ti  Ti395     1.0  0.65625  0.53125  0.75000  1.0000
  Ti  Ti396     1.0  0.71875  0.53125  0.75000  1.0000
  Ti  Ti397     1.0  0.78125  0.53125  0.75000  1.0000
  Ti  Ti398     1.0  0.84375  0.53125  0.75000  1.0000
  Ti  Ti399     1.0  0.90625  0.53125  0.75000  1.0000
  Ti  Ti400     1.0  0.96875  0.53125  0.75000  1.0000
  Ti  Ti401     1.0  0.03125  0.59375  0.75000  1.0000
  Ti  Ti402     1.0  0.09375  0.59375  0.75000  1.0000
  Ti  Ti403     1.0  0.15625  0.59375  0.75000  1.0000
  Ti  Ti404     1.0  0.21875  0.59375  0.75000  1.0000
  Ti  Ti405     1.0  0.28125  0.59375  0.75000  1.0000
  Ti  Ti406     1.0  0.34375  0.59375  0.75000  1.0000
  Ti  Ti407     1.0  0.40625  0.59375  0.75000  1.0000
  Ti  Ti408     1.0  0.46875  0.59375  0.75000  1.0000
  Ti  Ti409     1.0  0.53125  0.59375  0.75000  1.0000
  Ti  Ti410     1.0  0.59375  0.59375  0.75000  1.0000
  Ti  Ti411     1.0  0.65625  0.59375  0.75000  1.0000
  Ti  Ti412     1.0  0.71875  0.59375  0.75000  1.0000
  Ti  Ti413     1.0  0.78125  0.59375  0.75000  1.0000
  Ti  Ti414     1.0  0.84375  0.59375  0.75000  1.0000
  Ti  Ti415     1.0  0.90625  0.59375  0.75000  1.0000
  Ti  Ti416     1.0  0.96875  0.59375  0.75000  1.0000
  Ti  Ti417     1.0  0.03125  0.65625  0.75000  1.0000
  Ti  Ti418     1.0  0.09375  0.65625  0.75000  1.0000
  Ti  Ti419     1.0  0.15625  0.65625  0.75000  1.0000
  Ti  Ti420     1.0  0.21875  0.65625  0.75000  1.0000
  Ti  Ti421     1.0  0.28125  0.65625  0.75000  1.0000
  Ti  Ti422     1.0  0.34375  0.65625  0.75000  1.0000
  Ti  Ti423     1.0  0.40625  0.65625  0.75000  1.0000
  Ti  Ti424     1.0  0.46875  0.65625  0.75000  1.0000
  Ti  Ti425     1.0  0.53125  0.65625  0.75000  1.0000
  Ti  Ti426     1.0  0.59375  0.65625  0.75000  1.0000
  Ti  Ti427     1.0  0.65625  0.65625  0.75000  1.0000
  Ti  Ti428     1.0  0.71875  0.65625  0.75000  1.0000
  Ti  Ti429     1.0  0.78125  0.65625  0.75000  1.0000
  Ti  Ti430     1.0  0.84375  0.65625  0.75000  1.0000
  Ti  Ti431     1.0  0.90625  0.65625  0.75000  1.0000
  Ti  Ti432     1.0  0.96875  0.65625  0.75000  1.0000
  Ti  Ti433     1.0  0.03125  0.71875  0.75000  1.0000
  Ti  Ti434     1.0  0.09375  0.71875  0.75000  1.0000
  Ti  Ti435     1.0  0.15625  0.71875  0.75000  1.0000
  Ti  Ti436     1.0  0.21875  0.71875  0.75000  1.0000
  Ti  Ti437     1.0  0.28125  0.71875  0.75000  1.0000
  Ti  Ti438     1.0  0.34375  0.71875  0.75000  1.0000
  Ti  Ti439     1.0  0.40625  0.71875  0.75000  1.0000
  Ti  Ti440     1.0  0.46875  0.71875  0.75000  1.0000
  Ti  Ti441     1.0  0.53125  0.71875  0.75000  1.0000
  Ti  Ti442     1.0  0.59375  0.71875  0.75000  1.0000
  Ti  Ti443     1.0  0.65625  0.71875  0.75000  1.0000
  Ti  Ti444     1.0  0.71875  0.71875  0.75000  1.0000
  Ti  Ti445     1.0  0.78125  0.71875  0.75000  1.0000
  Ti  Ti446     1.0  0.84375  0.71875  0.75000  1.0000
  Ti  Ti447     1.0  0.90625  0.71875  0.75000  1.0000
  Ti  Ti448     1.0  0.96875  0.71875  0.75000  1.0000
  Ti  Ti449     1.0  0.03125  0.78125  0.75000  1.0000
  Ti  Ti450     1.0  0.09375  0.78125  0.75000  1.0000
  Ti  Ti451     1.0  0.15625  0.78125  0.75000  1.0000
  Ti  Ti452     1.0  0.21875  0.78125  0.75000  1.0000
  Ti  Ti453     1.0  0.28125  0.78125  0.75000  1.0000
  Ti  Ti454     1.0  0.34375  0.78125  0.75000  1.0000
  Ti  Ti455     1.0  0.40625  0.78125  0.75000  1.0000
  Ti  Ti456     1.0  0.46875  0.78125  0.75000  1.0000
  Ti  Ti457     1.0  0.53125  0.78125  0.75000  1.0000
  Ti  Ti458     1.0  0.59375  0.78125  0.75000  1.0000
  Ti  Ti459     1.0  0.65625  0.78125  0.75000  1.0000
  Ti  Ti460     1.0  0.71875  0.78125  0.75000  1.0000
  Ti  Ti461     1.0  0.78125  0.78125  0.75000  1.0000
  Ti  Ti462     1.0  0.84375  0.78125  0.75000  1.0000
  Ti  Ti463     1.0  0.90625  0.78125  0.75000  1.0000
  Ti  Ti464     1.0  0.96875  0.78125  0.75000  1.0000
  Ti  Ti465     1.0  0.03125  0.84375  0.75000  1.0000
  Ti  Ti466     1.0  0.09375  0.84375  0.75000  1.0000
  Ti  Ti467     1.0  0.15625  0.84375  0.75000  1.0000
  Ti  Ti468     1.0  0.21875  0.84375  0.75000  1.0000
  Ti  Ti469     1.0  0.28125  0.84375  0.75000  1.0000
  Ti  Ti470     1.0  0.34375  0.84375  0.75000  1.0000
  Ti  Ti471     1.0  0.40625  0.84375  0.75000  1.0000
  Ti  Ti472     1.0  0.46875  0.84375  0.75000  1.0000
  Ti  Ti473     1.0  0.53125  0.84375  0.75000  1.0000
  Ti  Ti474     1.0  0.59375  0.84375  0.75000  1.0000
  Ti  Ti475     1.0  0.65625  0.84375  0.75000  1.0000
  Ti  Ti476     1.0  0.71875  0.84375  0.75000  1.0000
  Ti  Ti477     1.0  0.78125  0.84375  0.75000  1.0000
  Ti  Ti478     1.0  0.84375  0.84375  0.75000  1.0000
  Ti  Ti479     1.0  0.90625  0.84375  0.75000  1.0000
  Ti  Ti480     1.0  0.96875  0.84375  0.75000  1.0000
  Ti  Ti481     1.0  0.03125  0.90625  0.75000  1.0000
  Ti  Ti482     1.0  0.09375  0.90625  0.75000  1.0000
  Ti  Ti483     1.0  0.15625  0.90625  0.75000  1.0000
  Ti  Ti484     1.0  0.21875  0.90625  0.75000  1.0000
  Ti  Ti485     1.0  0.28125  0.90625  0.75000  1.0000
  Ti  Ti486     1.0  0.34375  0.90625  0.75000  1.0000
  Ti  Ti487     1.0  0.40625  0.90625  0.75000  1.0000
  Ti  Ti488     1.0  0.46875  0.90625  0.75000  1.0000
  Ti  Ti489     1.0  0.53125  0.90625  0.75000  1.0000
  Ti  Ti490     1.0  0.59375  0.90625  0.75000  1.0000
  Ti  Ti491     1.0  0.65625  0.90625  0.75000  1.0000
  Ti  Ti492     1.0  0.71875  0.90625  0.75000  1.0000
  Ti  Ti493     1.0  0.78125  0.90625  0.75000  1.0000
  Ti  Ti494     1.0  0.84375  0.90625  0.75000  1.0000
  Ti  Ti495     1.0  0.90625  0.90625  0.75000  1.0000
  Ti  Ti496     1.0  0.96875  0.90625  0.75000  1.0000
  Ti  Ti497     1.0  0.03125  0.96875  0.75000  1.0000
  Ti  Ti498     1.0  0.09375  0.96875  0.75000  1.0000
  Ti  Ti499     1.0  0.15625  0.96875  0.75000  1.0000
  Ti  Ti500     1.0  0.21875  0.96875  0.75000  1.0000
  Ti  Ti501     1.0  0.28125  0.96875  0.75000  1.0000
  Ti  Ti502     1.0  0.34375  0.96875  0.75000  1.0000
  Ti  Ti503     1.0  0.40625  0.96875  0.75000  1.0000
  Ti  Ti504     1.0  0.46875  0.96875  0.75000  1.0000
  Ti  Ti505     1.0  0.53125  0.96875  0.75000  1.0000
  Ti  Ti506     1.0  0.59375  0.96875  0.75000  1.0000
  Ti  Ti507     1.0  0.65625  0.96875  0.75000  1.0000
  Ti  Ti508     1.0  0.71875  0.96875  0.75000  1.0000
  Ti  Ti509     1.0  0.78125  0.96875  0.75000  1.0000
  Ti  Ti510     1.0  0.84375  0.96875  0.75000  1.0000
  Ti  Ti511     1.0  0.90625  0.96875  0.75000  1.0000
  Ti  Ti512     1.0  0.96875  0.96875  0.75000  1.0000
  O   O1        1.0  0.03125  0.03125  0.00000  1.0000
  O   O2        1.0  0.09375  0.03125  0.00000  1.0000
  O   O3        1.0  0.15625  0.03125  0.00000  1.0000
  O   O4        1.0  0.21875  0.03125  0.00000  1.0000
  O   O5        1.0  0.28125  0.03125  0.00000  1.0000
  O   O6        1.0  0.34375  0.03125  0.00000  1.0000
  O   O7        1.0  0.40625  0.03125  0.00000  1.0000
  O   O8        1.0  0.46875  0.03125  0.00000  1.0000
  O   O9        1.0  0.53125  0.03125  0.00000  1.0000
  O   O10       1.0  0.59375  0.03125  0.00000  1.0000
  O   O11       1.0  0.65625  0.03125  0.00000  1.0000
  O   O12       1.0  0.71875  0.03125  0.00000  1.0000
  O   O13       1.0  0.78125  0.03125  0.00000  1.0000
  O   O14       1.0  0.84375  0.03125  0.00000  1.0000
  O   O15       1.0  0.90625  0.03125  0.00000  1.0000
  O   O16       1.0  0.96875  0.03125  0.00000  1.0000
  O   O17       1.0  0.03125  0.09375  0.00000  1.0000
  O   O18       1.0  0.09375  0.09375  0.00000  1.0000
  O   O19       1.0  0.15625  0.09375  0.00000  1.0000
  O   O20       1.0  0.21875  0.09375  0.00000  1.0000
  O   O21       1.0  0.28125  0.09375  0.00000  1.0000
  O   O22       1.0  0.34375  0.09375  0.00000  1.0000
  O   O23       1.0  0.40625  0.09375  0.00000  1.0000
  O   O24       1.0  0.46875  0.09375  0.00000  1.0000
  O   O25       1.0  0.53125  0.09375  0.00000  1.0000
  O   O26       1.0  0.59375  0.09375  0.00000  1.0000
  O   O27       1.0  0.65625  0.09375  0.00000  1.0000
  O   O28       1.0  0.71875  0.09375  0.00000  1.0000
  O   O29       1.0  0.78125  0.09375  0.00000  1.0000
  O   O30       1.0  0.84375  0.09375  0.00000  1.0000
  O   O31       1.0  0.90625  0.09375  0.00000  1.0000
  O   O32       1.0  0.96875  0.09375  0.00000  1.0000
  O   O33       1.0  0.03125  0.15625  0.00000  1.0000
  O   O34       1.0  0.09375  0.15625  0.00000  1.0000
  O   O35       1.0  0.15625  0.15625  0.00000  1.0000
  O   O36       1.0  0.21875  0.15625  0.00000  1.0000
  O   O37       1.0  0.28125  0.15625  0.00000  1.0000
  O   O38       1.0  0.34375  0.15625  0.00000  1.0000
  O   O39       1.0  0.40625  0.15625  0.00000  1.0000
  O   O40       1.0  0.46875  0.15625  0.00000  1.0000
  O   O41       1.0  0.53125  0.15625  0.00000  1.0000
  O   O42       1.0  0.59375  0.15625  0.00000  1.0000
  O   O43       1.0  0.65625  0.15625  0.00000  1.0000
  O   O44       1.0  0.71875  0.15625  0.00000  1.0000
  O   O45       1.0  0.78125  0.15625  0.00000  1.0000
  O   O46       1.0  0.84375  0.15625  0.00000  1.0000
  O   O47       1.0  0.90625  0.15625  0.00000  1.0000
  O   O48       1.0  0.96875  0.15625  0.00000  1.0000
  O   O49       1.0  0.03125  0.21875  0.00000  1.0000
  O   O50       1.0  0.09375  0.21875  0.00000  1.0000
  O   O51       1.0  0.15625  0.21875  0.00000  1.0000
  O   O52       1.0  0.21875  0.21875  0.00000  1.0000
  O   O53       1.0  0.28125  0.21875  0.00000  1.0000
  O   O54       1.0  0.34375  0.21875  0.00000  1.0000
  O   O55       1.0  0.40625  0.21875  0.00000  1.0000
  O   O56       1.0  0.46875  0.21875  0.00000  1.0000
  O   O57       1.0  0.53125  0.21875  0.00000  1.0000
  O   O58       1.0  0.59375  0.21875  0.00000  1.0000
  O   O59       1.0  0.65625  0.21875  0.00000  1.0000
  O   O60       1.0  0.71875  0.21875  0.00000  1.0000
  O   O61       1.0  0.78125  0.21875  0.00000  1.0000
  O   O62       1.0  0.84375  0.21875  0.00000  1.0000
  O   O63       1.0  0.90625  0.21875  0.00000  1.0000
  O   O64       1.0  0.96875  0.21875  0.00000  1.0000
  O   O65       1.0  0.03125  0.28125  0.00000  1.0000
  O   O66       1.0  0.09375  0.28125  0.00000  1.0000
  O   O67       1.0  0.15625  0.28125  0.00000  1.0000
  O   O68       1.0  0.21875  0.28125  0.00000  1.0000
  O   O69       1.0  0.28125  0.28125  0.00000  1.0000
  O   O70       1.0  0.34375  0.28125  0.00000  1.0000
  O   O71       1.0  0.40625  0.28125  0.00000  1.0000
  O   O72       1.0  0.46875  0.28125  0.00000  1.0000
  O   O73       1.0  0.53125  0.28125  0.00000  1.0000
  O   O74       1.0  0.59375  0.28125  0.00000  1.0000
  O   O75       1.0  0.65625  0.28125  0.00000  1.0000
  O   O76       1.0  0.71875  0.28125  0.00000  1.0000
  O   O77       1.0  0.78125  0.28125  0.00000  1.0000
  O   O78       1.0  0.84375  0.28125  0.00000  1.0000
  O   O79       1.0  0.90625  0.28125  0.00000  1.0000
  O   O80       1.0  0.96875  0.28125  0.00000  1.0000
  O   O81       1.0  0.03125  0.34375  0.00000  1.0000
  O   O82       1.0  0.09375  0.34375  0.00000  1.0000
  O   O83       1.0  0.15625  0.34375  0.00000  1.0000
  O   O84       1.0  0.21875  0.34375  0.00000  1.0000
  O   O85       1.0  0.28125  0.34375  0.00000  1.0000
  O   O86       1.0  0.34375  0.34375  0.00000  1.0000
  O   O87       1.0  0.40625  0.34375  0.00000  1.0000
  O   O88       1.0  0.46875  0.34375  0.00000  1.0000
  O   O89       1.0  0.53125  0.34375  0.00000  1.0000
  O   O90       1.0  0.59375  0.34375  0.00000  1.0000
  O   O91       1.0  0.65625  0.34375  0.00000  1.0000
  O   O92       1.0  0.71875  0.34375  0.00000  1.0000
  O   O93       1.0  0.78125  0.34375  0.00000  1.0000
  O   O94       1.0  0.84375  0.34375  0.00000  1.0000
  O   O95       1.0  0.90625  0.34375  0.00000  1.0000
  O   O96       1.0  0.96875  0.34375  0.00000  1.0000
  O   O97       1.0  0.03125  0.40625  0.00000  1.0000
  O   O98       1.0  0.09375  0.40625  0.00000  1.0000
  O   O99       1.0  0.15625  0.40625  0.00000  1.0000
  O   O100      1.0  0.21875  0.40625  0.00000  1.0000
  O   O101      1.0  0.28125  0.40625  0.00000  1.0000
  O   O102      1.0  0.34375  0.40625  0.00000  1.0000
  O   O103      1.0  0.40625  0.40625  0.00000  1.0000
  O   O104      1.0  0.46875  0.40625  0.00000  1.0000
  O   O105      1.0  0.53125  0.40625  0.00000  1.0000
  O   O106      1.0  0.59375  0.40625  0.00000  1.0000
  O   O107      1.0  0.65625  0.40625  0.00000  1.0000
  O   O108      1.0  0.71875  0.40625  0.00000  1.0000
  O   O109      1.0  0.78125  0.40625  0.00000  1.0000
  O   O110      1.0  0.84375  0.40625  0.00000  1.0000
  O   O111      1.0  0.90625  0.40625  0.00000  1.0000
  O   O112      1.0  0.96875  0.40625  0.00000  1.0000
  O   O113      1.0  0.03125  0.46875  0.00000  1.0000
  O   O114      1.0  0.09375  0.46875  0.00000  1.0000
  O   O115      1.0  0.15625  0.46875  0.00000  1.0000
  O   O116      1.0  0.21875  0.46875  0.00000  1.0000
  O   O117      1.0  0.28125  0.46875  0.00000  1.0000
  O   O118      1.0  0.34375  0.46875  0.00000  1.0000
  O   O119      1.0  0.40625  0.46875  0.00000  1.0000
  O   O120      1.0  0.46875  0.46875  0.00000  1.0000
  O   O121      1.0  0.53125  0.46875  0.00000  1.0000
  O   O122      1.0  0.59375  0.46875  0.00000  1.0000
  O   O123      1.0  0.65625  0.46875  0.00000  1.0000
  O   O124      1.0  0.71875  0.46875  0.00000  1.0000
  O   O125      1.0  0.78125  0.46875  0.00000  1.0000
  O   O126      1.0  0.84375  0.46875  0.00000  1.0000
  O   O127      1.0  0.90625  0.46875  0.00000  1.0000
  O   O128      1.0  0.96875  0.46875  0.00000  1.0000
  O   O129      1.0  0.03125  0.53125  0.00000  1.0000
  O   O130      1.0  0.09375  0.53125  0.00000  1.0000
  O   O131      1.0  0.15625  0.53125  0.00000  1.0000
  O   O132      1.0  0.21875  0.53125  0.00000  1.0000
  O   O133      1.0  0.28125  0.53125  0.00000  1.0000
  O   O134      1.0  0.34375  0.53125  0.00000  1.0000
  O   O135      1.0  0.40625  0.53125  0.00000  1.0000
  O   O136      1.0  0.46875  0.53125  0.00000  1.0000
  O   O137      1.0  0.53125  0.53125  0.00000  1.0000
  O   O138      1.0  0.59375  0.53125  0.00000  1.0000
  O   O139      1.0  0.65625  0.53125  0.00000  1.0000
  O   O140      1.0  0.71875  0.53125  0.00000  1.0000
  O   O141      1.0  0.78125  0.53125  0.00000  1.0000
  O   O142      1.0  0.84375  0.53125  0.00000  1.0000
  O   O143      1.0  0.90625  0.53125  0.00000  1.0000
  O   O144      1.0  0.96875  0.53125  0.00000  1.0000
  O   O145      1.0  0.03125  0.59375  0.00000  1.0000
  O   O146      1.0  0.09375  0.59375  0.00000  1.0000
  O   O147      1.0  0.15625  0.59375  0.00000  1.0000
  O   O148      1.0  0.21875  0.59375  0.00000  1.0000
  O   O149      1.0  0.28125  0.59375  0.00000  1.0000
  O   O150      1.0  0.34375  0.59375  0.00000  1.0000
  O   O151      1.0  0.40625  0.59375  0.00000  1.0000
  O   O152      1.0  0.46875  0.59375  0.00000  1.0000
  O   O153      1.0  0.53125  0.59375  0.00000  1.0000
  O   O154      1.0  0.59375  0.59375  0.00000  1.0000
  O   O155      1.0  0.65625  0.59375  0.00000  1.0000
  O   O156      1.0  0.71875  0.59375  0.00000  1.0000
  O   O157      1.0  0.78125  0.59375  0.00000  1.0000
  O   O158      1.0  0.84375  0.59375  0.00000  1.0000
  O   O159      1.0  0.90625  0.59375  0.00000  1.0000
  O   O160      1.0  0.96875  0.59375  0.00000  1.0000
  O   O161      1.0  0.03125  0.65625  0.00000  1.0000
  O   O162      1.0  0.09375  0.65625  0.00000  1.0000
  O   O163      1.0  0.15625  0.65625  0.00000  1.0000
  O   O164      1.0  0.21875  0.65625  0.00000  1.0000
  O   O165      1.0  0.28125  0.65625  0.00000  1.0000
  O   O166      1.0  0.34375  0.65625  0.00000  1.0000
  O   O167      1.0  0.40625  0.65625  0.00000  1.0000
  O   O168      1.0  0.46875  0.65625  0.00000  1.0000
  O   O169      1.0  0.53125  0.65625  0.00000  1.0000
  O   O170      1.0  0.59375  0.65625  0.00000  1.0000
  O   O171      1.0  0.65625  0.65625  0.00000  1.0000
  O   O172      1.0  0.71875  0.65625  0.00000  1.0000
  O   O173      1.0  0.78125  0.65625  0.00000  1.0000
  O   O174      1.0  0.84375  0.65625  0.00000  1.0000
  O   O175      1.0  0.90625  0.65625  0.00000  1.0000
  O   O176      1.0  0.96875  0.65625  0.00000  1.0000
  O   O177      1.0  0.03125  0.71875  0.00000  1.0000
  O   O178      1.0  0.09375  0.71875  0.00000  1.0000
  O   O179      1.0  0.15625  0.71875  0.00000  1.0000
  O   O180      1.0  0.21875  0.71875  0.00000  1.0000
  O   O181      1.0  0.28125  0.71875  0.00000  1.0000
  O   O182      1.0  0.34375  0.71875  0.00000  1.0000
  O   O183      1.0  0.40625  0.71875  0.00000  1.0000
  O   O184      1.0  0.46875  0.71875  0.00000  1.0000
  O   O185      1.0  0.53125  0.71875  0.00000  1.0000
  O   O186      1.0  0.59375  0.71875  0.00000  1.0000
  O   O187      1.0  0.65625  0.71875  0.00000  1.0000
  O   O188      1.0  0.71875  0.71875  0.00000  1.0000
  O   O189      1.0  0.78125  0.71875  0.00000  1.0000
  O   O190      1.0  0.84375  0.71875  0.00000  1.0000
  O   O191      1.0  0.90625  0.71875  0.00000  1.0000
  O   O192      1.0  0.96875  0.71875  0.00000  1.0000
  O   O193      1.0  0.03125  0.78125  0.00000  1.0000
  O   O194      1.0  0.09375  0.78125  0.00000  1.0000
  O   O195      1.0  0.15625  0.78125  0.00000  1.0000
  O   O196      1.0  0.21875  0.78125  0.00000  1.0000
  O   O197      1.0  0.28125  0.78125  0.00000  1.0000
  O   O198      1.0  0.34375  0.78125  0.00000  1.0000
  O   O199      1.0  0.40625  0.78125  0.00000  1.0000
  O   O200      1.0  0.46875  0.78125  0.00000  1.0000
  O   O201      1.0  0.53125  0.78125  0.00000  1.0000
  O   O202      1.0  0.59375  0.78125  0.00000  1.0000
  O   O203      1.0  0.65625  0.78125  0.00000  1.0000
  O   O204      1.0  0.71875  0.78125  0.00000  1.0000
  O   O205      1.0  0.78125  0.78125  0.00000  1.0000
  O   O206      1.0  0.84375  0.78125  0.00000  1.0000
  O   O207      1.0  0.90625  0.78125  0.00000  1.0000
  O   O208      1.0  0.96875  0.78125  0.00000  1.0000
  O   O209      1.0  0.03125  0.84375  0.00000  1.0000
  O   O210      1.0  0.09375  0.84375  0.00000  1.0000
  O   O211      1.0  0.15625  0.84375  0.00000  1.0000
  O   O212      1.0  0.21875  0.84375  0.00000  1.0000
  O   O213      1.0  0.28125  0.84375  0.00000  1.0000
  O   O214      1.0  0.34375  0.84375  0.00000  1.0000
  O   O215      1.0  0.40625  0.84375  0.00000  1.0000
  O   O216      1.0  0.46875  0.84375  0.00000  1.0000
  O   O217      1.0  0.53125  0.84375  0.00000  1.0000
  O   O218      1.0  0.59375  0.84375  0.00000  1.0000
  O   O219      1.0  0.65625  0.84375  0.00000  1.0000
  O   O220      1.0  0.71875  0.84375  0.00000  1.0000
  O   O221      1.0  0.78125  0.84375  0.00000  1.0000
  O   O222      1.0  0.84375  0.84375  0.00000  1.0000
  O   O223      1.0  0.90625  0.84375  0.00000  1.0000
  O   O224      1.0  0.96875  0.84375  0.00000  1.0000
  O   O225      1.0  0.03125  0.90625  0.00000  1.0000
  O   O226      1.0  0.09375  0.90625  0.00000  1.0000
  O   O227      1.0  0.15625  0.90625  0.00000  1.0000
  O   O228      1.0  0.21875  0.90625  0.00000  1.0000
  O   O229      1.0  0.28125  0.90625  0.00000  1.0000
  O   O230      1.0  0.34375  0.90625  0.00000  1.0000
  O   O231      1.0  0.40625  0.90625  0.00000  1.0000
  O   O232      1.0  0.46875  0.90625  0.00000  1.0000
  O   O233      1.0  0.53125  0.90625  0.00000  1.0000
  O   O234      1.0  0.59375  0.90625  0.00000  1.0000
  O   O235      1.0  0.65625  0.90625  0.00000  1.0000
  O   O236      1.0  0.71875  0.90625  0.00000  1.0000
  O   O237      1.0  0.78125  0.90625  0.00000  1.0000
  O   O238      1.0  0.84375  0.90625  0.00000  1.0000
  O   O239      1.0  0.90625  0.90625  0.00000  1.0000
  O   O240      1.0  0.96875  0.90625  0.00000  1.0000
  O   O241      1.0  0.03125  0.96875  0.00000  1.0000
  O   O242      1.0  0.09375  0.96875  0.00000  1.0000
  O   O243      1.0  0.15625  0.96875  0.00000  1.0000
  O   O244      1.0  0.21875  0.96875  0.00000  1.0000
  O   O245      1.0  0.28125  0.96875  0.00000  1.0000
  O   O246      1.0  0.34375  0.96875  0.00000  1.0000
  O   O247      1.0  0.40625  0.96875  0.00000  1.0000
  O   O248      1.0  0.46875  0.96875  0.00000  1.0000
  O   O249      1.0  0.53125  0.96875  0.00000  1.0000
  O   O250      1.0  0.59375  0.96875  0.00000  1.0000
  O   O251      1.0  0.65625  0.96875  0.00000  1.0000
  O   O252      1.0  0.71875  0.96875  0.00000  1.0000
  O   O253      1.0  0.78125  0.96875  0.00000  1.0000
  O   O254      1.0  0.84375  0.96875  0.00000  1.0000
  O   O255      1.0  0.90625  0.96875  0.00000  1.0000
  O   O256      1.0  0.96875  0.96875  0.00000  1.0000
  O   O257      1.0  0.03125  0.03125  0.50000  1.0000
  O   O258      1.0  0.09375  0.03125  0.50000  1.0000
  O   O259      1.0  0.15625  0.03125  0.50000  1.0000
  O   O260      1.0  0.21875  0.03125  0.50000  1.0000
  O   O261      1.0  0.28125  0.03125  0.50000  1.0000
  O   O262      1.0  0.34375  0.03125  0.50000  1.0000
  O   O263      1.0  0.40625  0.03125  0.50000  1.0000
  O   O264      1.0  0.46875  0.03125  0.50000  1.0000
  O   O265      1.0  0.53125  0.03125  0.50000  1.0000
  O   O266      1.0  0.59375  0.03125  0.50000  1.0000
  O   O267      1.0  0.65625  0.03125  0.50000  1.0000
  O   O268      1.0  0.71875  0.03125  0.50000  1.0000
  O   O269      1.0  0.78125  0.03125  0.50000  1.0000
  O   O270      1.0  0.84375  0.03125  0.50000  1.0000
  O   O271      1.0  0.90625  0.03125  0.50000  1.0000
  O   O272      1.0  0.96875  0.03125  0.50000  1.0000
  O   O273      1.0  0.03125  0.09375  0.50000  1.0000
  O   O274      1.0  0.09375  0.09375  0.50000  1.0000
  O   O275      1.0  0.15625  0.09375  0.50000  1.0000
  O   O276      1.0  0.21875  0.09375  0.50000  1.0000
  O   O277      1.0  0.28125  0.09375  0.50000  1.0000
  O   O278      1.0  0.34375  0.09375  0.50000  1.0000
  O   O279      1.0  0.40625  0.09375  0.50000  1.0000
  O   O280      1.0  0.46875  0.09375  0.50000  1.0000
  O   O281      1.0  0.53125  0.09375  0.50000  1.0000
  O   O282      1.0  0.59375  0.09375  0.50000  1.0000
  O   O283      1.0  0.65625  0.09375  0.50000  1.0000
  O   O284      1.0  0.71875  0.09375  0.50000  1.0000
  O   O285      1.0  0.78125  0.09375  0.50000  1.0000
  O   O286      1.0  0.84375  0.09375  0.50000  1.0000
  O   O287      1.0  0.90625  0.09375  0.50000  1.0000
  O   O288      1.0  0.96875  0.09375  0.50000  1.0000
  O   O289      1.0  0.03125  0.15625  0.50000  1.0000
  O   O290      1.0  0.09375  0.15625  0.50000  1.0000
  O   O291      1.0  0.15625  0.15625  0.50000  1.0000
  O   O292      1.0  0.21875  0.15625  0.50000  1.0000
  O   O293      1.0  0.28125  0.15625  0.50000  1.0000
  O   O294      1.0  0.34375  0.15625  0.50000  1.0000
  O   O295      1.0  0.40625  0.15625  0.50000  1.0000
  O   O296      1.0  0.46875  0.15625  0.50000  1.0000
  O   O297      1.0  0.53125  0.15625  0.50000  1.0000
  O   O298      1.0  0.59375  0.15625  0.50000  1.0000
  O   O299      1.0  0.65625  0.15625  0.50000  1.0000
  O   O300      1.0  0.71875  0.15625  0.50000  1.0000
  O   O301      1.0  0.78125  0.15625  0.50000  1.0000
  O   O302      1.0  0.84375  0.15625  0.50000  1.0000
  O   O303      1.0  0.90625  0.15625  0.50000  1.0000
  O   O304      1.0  0.96875  0.15625  0.50000  1.0000
  O   O305      1.0  0.03125  0.21875  0.50000  1.0000
  O   O306      1.0  0.09375  0.21875  0.50000  1.0000
  O   O307      1.0  0.15625  0.21875  0.50000  1.0000
  O   O308      1.0  0.21875  0.21875  0.50000  1.0000
  O   O309      1.0  0.28125  0.21875  0.50000  1.0000
  O   O310      1.0  0.34375  0.21875  0.50000  1.0000
  O   O311      1.0  0.40625  0.21875  0.50000  1.0000
  O   O312      1.0  0.46875  0.21875  0.50000  1.0000
  O   O313      1.0  0.53125  0.21875  0.50000  1.0000
  O   O314      1.0  0.59375  0.21875  0.50000  1.0000
  O   O315      1.0  0.65625  0.21875  0.50000  1.0000
  O   O316      1.0  0.71875  0.21875  0.50000  1.0000
  O   O317      1.0  0.78125  0.21875  0.50000  1.0000
  O   O318      1.0  0.84375  0.21875  0.50000  1.0000
  O   O319      1.0  0.90625  0.21875  0.50000  1.0000
  O   O320      1.0  0.96875  0.21875  0.50000  1.0000
  O   O321      1.0  0.03125  0.28125  0.50000  1.0000
  O   O322      1.0  0.09375  0.28125  0.50000  1.0000
  O   O323      1.0  0.15625  0.28125  0.50000  1.0000
  O   O324      1.0  0.21875  0.28125  0.50000  1.0000
  O   O325      1.0  0.28125  0.28125  0.50000  1.0000
  O   O326      1.0  0.34375  0.28125  0.50000  1.0000
  O   O327      1.0  0.40625  0.28125  0.50000  1.0000
  O   O328      1.0  0.46875  0.28125  0.50000  1.0000
  O   O329      1.0  0.53125  0.28125  0.50000  1.0000
  O   O330      1.0  0.59375  0.28125  0.50000  1.0000
  O   O331      1.0  0.65625  0.28125  0.50000  1.0000
  O   O332      1.0  0.71875  0.28125  0.50000  1.0000
  O   O333      1.0  0.78125  0.28125  0.50000  1.0000
  O   O334      1.0  0.84375  0.28125  0.50000  1.0000
  O   O335      1.0  0.90625  0.28125  0.50000  1.0000
  O   O336      1.0  0.96875  0.28125  0.50000  1.0000
  O   O337      1.0  0.03125  0.34375  0.50000  1.0000
  O   O338      1.0  0.09375  0.34375  0.50000  1.0000
  O   O339      1.0  0.15625  0.34375  0.50000  1.0000
  O   O340      1.0  0.21875  0.34375  0.50000  1.0000
  O   O341      1.0  0.28125  0.34375  0.50000  1.0000
  O   O342      1.0  0.34375  0.34375  0.50000  1.0000
  O   O343      1.0  0.40625  0.34375  0.50000  1.0000
  O   O344      1.0  0.46875  0.34375  0.50000  1.0000
  O   O345      1.0  0.53125  0.34375  0.50000  1.0000
  O   O346      1.0  0.59375  0.34375  0.50000  1.0000
  O   O347      1.0  0.65625  0.34375  0.50000  1.0000
  O   O348      1.0  0.71875  0.34375  0.50000  1.0000
  O   O349      1.0  0.78125  0.34375  0.50000  1.0000
  O   O350      1.0  0.84375  0.34375  0.50000  1.0000
  O   O351      1.0  0.90625  0.34375  0.50000  1.0000
  O   O352      1.0  0.96875  0.34375  0.50000  1.0000
  O   O353      1.0  0.03125  0.40625  0.50000  1.0000
  O   O354      1.0  0.09375  0.40625  0.50000  1.0000
  O   O355      1.0  0.15625  0.40625  0.50000  1.0000
  O   O356      1.0  0.21875  0.40625  0.50000  1.0000
  O   O357      1.0  0.28125  0.40625  0.50000  1.0000
  O   O358      1.0  0.34375  0.40625  0.50000  1.0000
  O   O359      1.0  0.40625  0.40625  0.50000  1.0000
  O   O360      1.0  0.46875  0.40625  0.50000  1.0000
  O   O361      1.0  0.53125  0.40625  0.50000  1.0000
  O   O362      1.0  0.59375  0.40625  0.50000  1.0000
  O   O363      1.0  0.65625  0.40625  0.50000  1.0000
  O   O364      1.0  0.71875  0.40625  0.50000  1.0000
  O   O365      1.0  0.78125  0.40625  0.50000  1.0000
  O   O366      1.0  0.84375  0.40625  0.50000  1.0000
  O   O367      1.0  0.90625  0.40625  0.50000  1.0000
  O   O368      1.0  0.96875  0.40625  0.50000  1.0000
  O   O369      1.0  0.03125  0.46875  0.50000  1.0000
  O   O370      1.0  0.09375  0.46875  0.50000  1.0000
  O   O371      1.0  0.15625  0.46875  0.50000  1.0000
  O   O372      1.0  0.21875  0.46875  0.50000  1.0000
  O   O373      1.0  0.28125  0.46875  0.50000  1.0000
  O   O374      1.0  0.34375  0.46875  0.50000  1.0000
  O   O375      1.0  0.40625  0.46875  0.50000  1.0000
  O   O376      1.0  0.46875  0.46875  0.50000  1.0000
  O   O377      1.0  0.53125  0.46875  0.50000  1.0000
  O   O378      1.0  0.59375  0.46875  0.50000  1.0000
  O   O379      1.0  0.65625  0.46875  0.50000  1.0000
  O   O380      1.0  0.71875  0.46875  0.50000  1.0000
  O   O381      1.0  0.78125  0.46875  0.50000  1.0000
  O   O382      1.0  0.84375  0.46875  0.50000  1.0000
  O   O383      1.0  0.90625  0.46875  0.50000  1.0000
  O   O384      1.0  0.96875  0.46875  0.50000  1.0000
  O   O385      1.0  0.03125  0.53125  0.50000  1.0000
  O   O386      1.0  0.09375  0.53125  0.50000  1.0000
  O   O387      1.0  0.15625  0.53125  0.50000  1.0000
  O   O388      1.0  0.21875  0.53125  0.50000  1.0000
  O   O389      1.0  0.28125  0.53125  0.50000  1.0000
  O   O390      1.0  0.34375  0.53125  0.50000  1.0000
  O   O391      1.0  0.40625  0.53125  0.50000  1.0000
  O   O392      1.0  0.46875  0.53125  0.50000  1.0000
  O   O393      1.0  0.53125  0.53125  0.50000  1.0000
  O   O394      1.0  0.59375  0.53125  0.50000  1.0000
  O   O395      1.0  0.65625  0.53125  0.50000  1.0000
  O   O396      1.0  0.71875  0.53125  0.50000  1.0000
  O   O397      1.0  0.78125  0.53125  0.50000  1.0000
  O   O398      1.0  0.84375  0.53125  0.50000  1.0000
  O   O399      1.0  0.90625  0.53125  0.50000  1.0000
  O   O400      1.0  0.96875  0.53125  0.50000  1.0000
  O   O401      1.0  0.03125  0.59375  0.50000  1.0000
  O   O402      1.0  0.09375  0.59375  0.50000  1.0000
  O   O403      1.0  0.15625  0.59375  0.50000  1.0000
  O   O404      1.0  0.21875  0.59375  0.50000  1.0000
  O   O405      1.0  0.28125  0.59375  0.50000  1.0000
  O   O406      1.0  0.34375  0.59375  0.50000  1.0000
  O   O407      1.0  0.40625  0.59375  0.50000  1.0000
  O   O408      1.0  0.46875  0.59375  0.50000  1.0000
  O   O409      1.0  0.53125  0.59375  0.50000  1.0000
  O   O410      1.0  0.59375  0.59375  0.50000  1.0000
  O   O411      1.0  0.65625  0.59375  0.50000  1.0000
  O   O412      1.0  0.71875  0.59375  0.50000  1.0000
  O   O413      1.0  0.78125  0.59375  0.50000  1.0000
  O   O414      1.0  0.84375  0.59375  0.50000  1.0000
  O   O415      1.0  0.90625  0.59375  0.50000  1.0000
  O   O416      1.0  0.96875  0.59375  0.50000  1.0000
  O   O417      1.0  0.03125  0.65625  0.50000  1.0000
  O   O418      1.0  0.09375  0.65625  0.50000  1.0000
  O   O419      1.0  0.15625  0.65625  0.50000  1.0000
  O   O420      1.0  0.21875  0.65625  0.50000  1.0000
  O   O421      1.0  0.28125  0.65625  0.50000  1.0000
  O   O422      1.0  0.34375  0.65625  0.50000  1.0000
  O   O423      1.0  0.40625  0.65625  0.50000  1.0000
  O   O424      1.0  0.46875  0.65625  0.50000  1.0000
  O   O425      1.0  0.53125  0.65625  0.50000  1.0000
  O   O426      1.0  0.59375  0.65625  0.50000  1.0000
  O   O427      1.0  0.65625  0.65625  0.50000  1.0000
  O   O428      1.0  0.71875  0.65625  0.50000  1.0000
  O   O429      1.0  0.78125  0.65625  0.50000  1.0000
  O   O430      1.0  0.84375  0.65625  0.50000  1.0000
  O   O431      1.0  0.90625  0.65625  0.50000  1.0000
  O   O432      1.0  0.96875  0.65625  0.50000  1.0000
  O   O433      1.0  0.03125  0.71875  0.50000  1.0000
  O   O434      1.0  0.09375  0.71875  0.50000  1.0000
  O   O435      1.0  0.15625  0.71875  0.50000  1.0000
  O   O436      1.0  0.21875  0.71875  0.50000  1.0000
  O   O437      1.0  0.28125  0.71875  0.50000  1.0000
  O   O438      1.0  0.34375  0.71875  0.50000  1.0000
  O   O439      1.0  0.40625  0.71875  0.50000  1.0000
  O   O440      1.0  0.46875  0.71875  0.50000  1.0000
  O   O441      1.0  0.53125  0.71875  0.50000  1.0000
  O   O442      1.0  0.59375  0.71875  0.50000  1.0000
  O   O443      1.0  0.65625  0.71875  0.50000  1.0000
  O   O444      1.0  0.71875  0.71875  0.50000  1.0000
  O   O445      1.0  0.78125  0.71875  0.50000  1.0000
  O   O446      1.0  0.84375  0.71875  0.50000  1.0000
  O   O447      1.0  0.90625  0.71875  0.50000  1.0000
  O   O448      1.0  0.96875  0.71875  0.50000  1.0000
  O   O449      1.0  0.03125  0.78125  0.50000  1.0000
  O   O450      1.0  0.09375  0.78125  0.50000  1.0000
  O   O451      1.0  0.15625  0.78125  0.50000  1.0000
  O   O452      1.0  0.21875  0.78125  0.50000  1.0000
  O   O453      1.0  0.28125  0.78125  0.50000  1.0000
  O   O454      1.0  0.34375  0.78125  0.50000  1.0000
  O   O455      1.0  0.40625  0.78125  0.50000  1.0000
  O   O456      1.0  0.46875  0.78125  0.50000  1.0000
  O   O457      1.0  0.53125  0.78125  0.50000  1.0000
  O   O458      1.0  0.59375  0.78125  0.50000  1.0000
  O   O459      1.0  0.65625  0.78125  0.50000  1.0000
  O   O460      1.0  0.71875  0.78125  0.50000  1.0000
  O   O461      1.0  0.78125  0.78125  0.50000  1.0000
  O   O462      1.0  0.84375  0.78125  0.50000  1.0000
  O   O463      1.0  0.90625  0.78125  0.50000  1.0000
  O   O464      1.0  0.96875  0.78125  0.50000  1.0000
  O   O465      1.0  0.03125  0.84375  0.50000  1.0000
  O   O466      1.0  0.09375  0.84375  0.50000  1.0000
  O   O467      1.0  0.15625  0.84375  0.50000  1.0000
  O   O468      1.0  0.21875  0.84375  0.50000  1.0000
  O   O469      1.0  0.28125  0.84375  0.50000  1.0000
  O   O470      1.0  0.34375  0.84375  0.50000  1.0000
  O   O471      1.0  0.40625  0.84375  0.50000  1.0000
  O   O472      1.0  0.46875  0.84375  0.50000  1.0000
  O   O473      1.0  0.53125  0.84375  0.50000  1.0000
  O   O474      1.0  0.59375  0.84375  0.50000  1.0000
  O   O475      1.0  0.65625  0.84375  0.50000  1.0000
  O   O476      1.0  0.71875  0.84375  0.50000  1.0000
  O   O477      1.0  0.78125  0.84375  0.50000  1.0000
  O   O478      1.0  0.84375  0.84375  0.50000  1.0000
  O   O479      1.0  0.90625  0.84375  0.50000  1.0000
  O   O480      1.0  0.96875  0.84375  0.50000  1.0000
  O   O481      1.0  0.03125  0.90625  0.50000  1.0000
  O   O482      1.0  0.09375  0.90625  0.50000  1.0000
  O   O483      1.0  0.15625  0.90625  0.50000  1.0000
  O   O484      1.0  0.21875  0.90625  0.50000  1.0000
  O   O485      1.0  0.28125  0.90625  0.50000  1.0000
  O   O486      1.0  0.34375  0.90625  0.50000  1.0000
  O   O487      1.0  0.40625  0.90625  0.50000  1.0000
  O   O488      1.0  0.46875  0.90625  0.50000  1.0000
  O   O489      1.0  0.53125  0.90625  0.50000  1.0000
  O   O490      1.0  0.59375  0.90625  0.50000  1.0000
  O   O491      1.0  0.65625  0.90625  0.50000  1.0000
  O   O492      1.0  0.71875  0.90625  0.50000  1.0000
  O   O493      1.0  0.78125  0.90625  0.50000  1.0000
  O   O494      1.0  0.84375  0.90625  0.50000  1.0000
  O   O495      1.0  0.90625  0.90625  0.50000  1.0000
  O   O496      1.0  0.96875  0.90625  0.50000  1.0000
  O   O497      1.0  0.03125  0.96875  0.50000  1.0000
  O   O498      1.0  0.09375  0.96875  0.50000  1.0000
  O   O499      1.0  0.15625  0.96875  0.50000  1.0000
  O   O500      1.0  0.21875  0.96875  0.50000  1.0000
  O   O501      1.0  0.28125  0.96875  0.50000  1.0000
  O   O502      1.0  0.34375  0.96875  0.50000  1.0000
  O   O503      1.0  0.40625  0.96875  0.50000  1.0000
  O   O504      1.0  0.46875  0.96875  0.50000  1.0000
  O   O505      1.0  0.53125  0.96875  0.50000  1.0000
  O   O506      1.0  0.59375  0.96875  0.50000  1.0000
  O   O507      1.0  0.65625  0.96875  0.50000  1.0000
  O   O508      1.0  0.71875  0.96875  0.50000  1.0000
  O   O509      1.0  0.78125  0.96875  0.50000  1.0000
  O   O510      1.0  0.84375  0.96875  0.50000  1.0000
  O   O511      1.0  0.90625  0.96875  0.50000  1.0000
  O   O512      1.0  0.96875  0.96875  0.50000  1.0000
  O   O513      1.0  0.00000  0.03125  0.25000  1.0000
  O   O514      1.0  0.06250  0.03125  0.25000  1.0000
  O   O515      1.0  0.12500  0.03125  0.25000  1.0000
  O   O516      1.0  0.18750  0.03125  0.25000  1.0000
  O   O517      1.0  0.25000  0.03125  0.25000  1.0000
  O   O518      1.0  0.31250  0.03125  0.25000  1.0000
  O   O519      1.0  0.37500  0.03125  0.25000  1.0000
  O   O520      1.0  0.43750  0.03125  0.25000  1.0000
  O   O521      1.0  0.50000  0.03125  0.25000  1.0000
  O   O522      1.0  0.56250  0.03125  0.25000  1.0000
  O   O523      1.0  0.62500  0.03125  0.25000  1.0000
  O   O524      1.0  0.68750  0.03125  0.25000  1.0000
  O   O525      1.0  0.75000  0.03125  0.25000  1.0000
  O   O526      1.0  0.81250  0.03125  0.25000  1.0000
  O   O527      1.0  0.87500  0.03125  0.25000  1.0000
  O   O528      1.0  0.93750  0.03125  0.25000  1.0000
  O   O529      1.0  0.00000  0.09375  0.25000  1.0000
  O   O530      1.0  0.06250  0.09375  0.25000  1.0000
  O   O531      1.0  0.12500  0.09375  0.25000  1.0000
  O   O532      1.0  0.18750  0.09375  0.25000  1.0000
  O   O533      1.0  0.25000  0.09375  0.25000  1.0000
  O   O534      1.0  0.31250  0.09375  0.25000  1.0000
  O   O535      1.0  0.37500  0.09375  0.25000  1.0000
  O   O536      1.0  0.43750  0.09375  0.25000  1.0000
  O   O537      1.0  0.50000  0.09375  0.25000  1.0000
  O   O538      1.0  0.56250  0.09375  0.25000  1.0000
  O   O539      1.0  0.62500  0.09375  0.25000  1.0000
  O   O540      1.0  0.68750  0.09375  0.25000  1.0000
  O   O541      1.0  0.75000  0.09375  0.25000  1.0000
  O   O542      1.0  0.81250  0.09375  0.25000  1.0000
  O   O543      1.0  0.87500  0.09375  0.25000  1.0000
  O   O544      1.0  0.93750  0.09375  0.25000  1.0000
  O   O545      1.0  0.00000  0.15625  0.25000  1.0000
  O   O546      1.0  0.06250  0.15625  0.25000  1.0000
  O   O547      1.0  0.12500  0.15625  0.25000  1.0000
  O   O548      1.0  0.18750  0.15625  0.25000  1.0000
  O   O549      1.0  0.25000  0.15625  0.25000  1.0000
  O   O550      1.0  0.31250  0.15625  0.25000  1.0000
  O   O551      1.0  0.37500  0.15625  0.25000  1.0000
  O   O552      1.0  0.43750  0.15625  0.25000  1.0000
  O   O553      1.0  0.50000  0.15625  0.25000  1.0000
  O   O554      1.0  0.56250  0.15625  0.25000  1.0000
  O   O555      1.0  0.62500  0.15625  0.25000  1.0000
  O   O556      1.0  0.68750  0.15625  0.25000  1.0000
  O   O557      1.0  0.75000  0.15625  0.25000  1.0000
  O   O558      1.0  0.81250  0.15625  0.25000  1.0000
  O   O559      1.0  0.87500  0.15625  0.25000  1.0000
  O   O560      1.0  0.93750  0.15625  0.25000  1.0000
  O   O561      1.0  0.00000  0.21875  0.25000  1.0000
  O   O562      1.0  0.06250  0.21875  0.25000  1.0000
  O   O563      1.0  0.12500  0.21875  0.25000  1.0000
  O   O564      1.0  0.18750  0.21875  0.25000  1.0000
  O   O565      1.0  0.25000  0.21875  0.25000  1.0000
  O   O566      1.0  0.31250  0.21875  0.25000  1.0000
  O   O567      1.0  0.37500  0.21875  0.25000  1.0000
  O   O568      1.0  0.43750  0.21875  0.25000  1.0000
  O   O569      1.0  0.50000  0.21875  0.25000  1.0000
  O   O570      1.0  0.56250  0.21875  0.25000  1.0000
  O   O571      1.0  0.62500  0.21875  0.25000  1.0000
  O   O572      1.0  0.68750  0.21875  0.25000  1.0000
  O   O573      1.0  0.75000  0.21875  0.25000  1.0000
  O   O574      1.0  0.81250  0.21875  0.25000  1.0000
  O   O575      1.0  0.87500  0.21875  0.25000  1.0000
  O   O576      1.0  0.93750  0.21875  0.25000  1.0000
  O   O577      1.0  0.00000  0.28125  0.25000  1.0000
  O   O578      1.0  0.06250  0.28125  0.25000  1.0000
  O   O579      1.0  0.12500  0.28125  0.25000  1.0000
  O   O580      1.0  0.18750  0.28125  0.25000  1.0000
  O   O581      1.0  0.25000  0.28125  0.25000  1.0000
  O   O582      1.0  0.31250  0.28125  0.25000  1.0000
  O   O583      1.0  0.37500  0.28125  0.25000  1.0000
  O   O584      1.0  0.43750  0.28125  0.25000  1.0000
  O   O585      1.0  0.50000  0.28125  0.25000  1.0000
  O   O586      1.0  0.56250  0.28125  0.25000  1.0000
  O   O587      1.0  0.62500  0.28125  0.25000  1.0000
  O   O588      1.0  0.68750  0.28125  0.25000  1.0000
  O   O589      1.0  0.75000  0.28125  0.25000  1.0000
  O   O590      1.0  0.81250  0.28125  0.25000  1.0000
  O   O591      1.0  0.87500  0.28125  0.25000  1.0000
  O   O592      1.0  0.93750  0.28125  0.25000  1.0000
  O   O593      1.0  0.00000  0.34375  0.25000  1.0000
  O   O594      1.0  0.06250  0.34375  0.25000  1.0000
  O   O595      1.0  0.12500  0.34375  0.25000  1.0000
  O   O596      1.0  0.18750  0.34375  0.25000  1.0000
  O   O597      1.0  0.25000  0.34375  0.25000  1.0000
  O   O598      1.0  0.31250  0.34375  0.25000  1.0000
  O   O599      1.0  0.37500  0.34375  0.25000  1.0000
  O   O600      1.0  0.43750  0.34375  0.25000  1.0000
  O   O601      1.0  0.50000  0.34375  0.25000  1.0000
  O   O602      1.0  0.56250  0.34375  0.25000  1.0000
  O   O603      1.0  0.62500  0.34375  0.25000  1.0000
  O   O604      1.0  0.68750  0.34375  0.25000  1.0000
  O   O605      1.0  0.75000  0.34375  0.25000  1.0000
  O   O606      1.0  0.81250  0.34375  0.25000  1.0000
  O   O607      1.0  0.87500  0.34375  0.25000  1.0000
  O   O608      1.0  0.93750  0.34375  0.25000  1.0000
  O   O609      1.0  0.00000  0.40625  0.25000  1.0000
  O   O610      1.0  0.06250  0.40625  0.25000  1.0000
  O   O611      1.0  0.12500  0.40625  0.25000  1.0000
  O   O612      1.0  0.18750  0.40625  0.25000  1.0000
  O   O613      1.0  0.25000  0.40625  0.25000  1.0000
  O   O614      1.0  0.31250  0.40625  0.25000  1.0000
  O   O615      1.0  0.37500  0.40625  0.25000  1.0000
  O   O616      1.0  0.43750  0.40625  0.25000  1.0000
  O   O617      1.0  0.50000  0.40625  0.25000  1.0000
  O   O618      1.0  0.56250  0.40625  0.25000  1.0000
  O   O619      1.0  0.62500  0.40625  0.25000  1.0000
  O   O620      1.0  0.68750  0.40625  0.25000  1.0000
  O   O621      1.0  0.75000  0.40625  0.25000  1.0000
  O   O622      1.0  0.81250  0.40625  0.25000  1.0000
  O   O623      1.0  0.87500  0.40625  0.25000  1.0000
  O   O624      1.0  0.93750  0.40625  0.25000  1.0000
  O   O625      1.0  0.00000  0.46875  0.25000  1.0000
  O   O626      1.0  0.06250  0.46875  0.25000  1.0000
  O   O627      1.0  0.12500  0.46875  0.25000  1.0000
  O   O628      1.0  0.18750  0.46875  0.25000  1.0000
  O   O629      1.0  0.25000  0.46875  0.25000  1.0000
  O   O630      1.0  0.31250  0.46875  0.25000  1.0000
  O   O631      1.0  0.37500  0.46875  0.25000  1.0000
  O   O632      1.0  0.43750  0.46875  0.25000  1.0000
  O   O633      1.0  0.50000  0.46875  0.25000  1.0000
  O   O634      1.0  0.56250  0.46875  0.25000  1.0000
  O   O635      1.0  0.62500  0.46875  0.25000  1.0000
  O   O636      1.0  0.68750  0.46875  0.25000  1.0000
  O   O637      1.0  0.75000  0.46875  0.25000  1.0000
  O   O638      1.0  0.81250  0.46875  0.25000  1.0000
  O   O639      1.0  0.87500  0.46875  0.25000  1.0000
  O   O640      1.0  0.93750  0.46875  0.25000  1.0000
  O   O641      1.0  0.00000  0.53125  0.25000  1.0000
  O   O642      1.0  0.06250  0.53125  0.25000  1.0000
  O   O643      1.0  0.12500  0.53125  0.25000  1.0000
  O   O644      1.0  0.18750  0.53125  0.25000  1.0000
  O   O645      1.0  0.25000  0.53125  0.25000  1.0000
  O   O646      1.0  0.31250  0.53125  0.25000  1.0000
  O   O647      1.0  0.37500  0.53125  0.25000  1.0000
  O   O648      1.0  0.43750  0.53125  0.25000  1.0000
  O   O649      1.0  0.50000  0.53125  0.25000  1.0000
  O   O650      1.0  0.56250  0.53125  0.25000  1.0000
  O   O651      1.0  0.62500  0.53125  0.25000  1.0000
  O   O652      1.0  0.68750  0.53125  0.25000  1.0000
  O   O653      1.0  0.75000  0.53125  0.25000  1.0000
  O   O654      1.0  0.81250  0.53125  0.25000  1.0000
  O   O655      1.0  0.87500  0.53125  0.25000  1.0000
  O   O656      1.0  0.93750  0.53125  0.25000  1.0000
  O   O657      1.0  0.00000  0.59375  0.25000  1.0000
  O   O658      1.0  0.06250  0.59375  0.25000  1.0000
  O   O659      1.0  0.12500  0.59375  0.25000  1.0000
  O   O660      1.0  0.18750  0.59375  0.25000  1.0000
  O   O661      1.0  0.25000  0.59375  0.25000  1.0000
  O   O662      1.0  0.31250  0.59375  0.25000  1.0000
  O   O663      1.0  0.37500  0.59375  0.25000  1.0000
  O   O664      1.0  0.43750  0.59375  0.25000  1.0000
  O   O665      1.0  0.50000  0.59375  0.25000  1.0000
  O   O666      1.0  0.56250  0.59375  0.25000  1.0000
  O   O667      1.0  0.62500  0.59375  0.25000  1.0000
  O   O668      1.0  0.68750  0.59375  0.25000  1.0000
  O   O669      1.0  0.75000  0.59375  0.25000  1.0000
  O   O670      1.0  0.81250  0.59375  0.25000  1.0000
  O   O671      1.0  0.87500  0.59375  0.25000  1.0000
  O   O672      1.0  0.93750  0.59375  0.25000  1.0000
  O   O673      1.0  0.00000  0.65625  0.25000  1.0000
  O   O674      1.0  0.06250  0.65625  0.25000  1.0000
  O   O675      1.0  0.12500  0.65625  0.25000  1.0000
  O   O676      1.0  0.18750  0.65625  0.25000  1.0000
  O   O677      1.0  0.25000  0.65625  0.25000  1.0000
  O   O678      1.0  0.31250  0.65625  0.25000  1.0000
  O   O679      1.0  0.37500  0.65625  0.25000  1.0000
  O   O680      1.0  0.43750  0.65625  0.25000  1.0000
  O   O681      1.0  0.50000  0.65625  0.25000  1.0000
  O   O682      1.0  0.56250  0.65625  0.25000  1.0000
  O   O683      1.0  0.62500  0.65625  0.25000  1.0000
  O   O684      1.0  0.68750  0.65625  0.25000  1.0000
  O   O685      1.0  0.75000  0.65625  0.25000  1.0000
  O   O686      1.0  0.81250  0.65625  0.25000  1.0000
  O   O687      1.0  0.87500  0.65625  0.25000  1.0000
  O   O688      1.0  0.93750  0.65625  0.25000  1.0000
  O   O689      1.0  0.00000  0.71875  0.25000  1.0000
  O   O690      1.0  0.06250  0.71875  0.25000  1.0000
  O   O691      1.0  0.12500  0.71875  0.25000  1.0000
  O   O692      1.0  0.18750  0.71875  0.25000  1.0000
  O   O693      1.0  0.25000  0.71875  0.25000  1.0000
  O   O694      1.0  0.31250  0.71875  0.25000  1.0000
  O   O695      1.0  0.37500  0.71875  0.25000  1.0000
  O   O696      1.0  0.43750  0.71875  0.25000  1.0000
  O   O697      1.0  0.50000  0.71875  0.25000  1.0000
  O   O698      1.0  0.56250  0.71875  0.25000  1.0000
  O   O699      1.0  0.62500  0.71875  0.25000  1.0000
  O   O700      1.0  0.68750  0.71875  0.25000  1.0000
  O   O701      1.0  0.75000  0.71875  0.25000  1.0000
  O   O702      1.0  0.81250  0.71875  0.25000  1.0000
  O   O703      1.0  0.87500  0.71875  0.25000  1.0000
  O   O704      1.0  0.93750  0.71875  0.25000  1.0000
  O   O705      1.0  0.00000  0.78125  0.25000  1.0000
  O   O706      1.0  0.06250  0.78125  0.25000  1.0000
  O   O707      1.0  0.12500  0.78125  0.25000  1.0000
  O   O708      1.0  0.18750  0.78125  0.25000  1.0000
  O   O709      1.0  0.25000  0.78125  0.25000  1.0000
  O   O710      1.0  0.31250  0.78125  0.25000  1.0000
  O   O711      1.0  0.37500  0.78125  0.25000  1.0000
  O   O712      1.0  0.43750  0.78125  0.25000  1.0000
  O   O713      1.0  0.50000  0.78125  0.25000  1.0000
  O   O714      1.0  0.56250  0.78125  0.25000  1.0000
  O   O715      1.0  0.62500  0.78125  0.25000  1.0000
  O   O716      1.0  0.68750  0.78125  0.25000  1.0000
  O   O717      1.0  0.75000  0.78125  0.25000  1.0000
  O   O718      1.0  0.81250  0.78125  0.25000  1.0000
  O   O719      1.0  0.87500  0.78125  0.25000  1.0000
  O   O720      1.0  0.93750  0.78125  0.25000  1.0000
  O   O721      1.0  0.00000  0.84375  0.25000  1.0000
  O   O722      1.0  0.06250  0.84375  0.25000  1.0000
  O   O723      1.0  0.12500  0.84375  0.25000  1.0000
  O   O724      1.0  0.18750  0.84375  0.25000  1.0000
  O   O725      1.0  0.25000  0.84375  0.25000  1.0000
  O   O726      1.0  0.31250  0.84375  0.25000  1.0000
  O   O727      1.0  0.37500  0.84375  0.25000  1.0000
  O   O728      1.0  0.43750  0.84375  0.25000  1.0000
  O   O729      1.0  0.50000  0.84375  0.25000  1.0000
  O   O730      1.0  0.56250  0.84375  0.25000  1.0000
  O   O731      1.0  0.62500  0.84375  0.25000  1.0000
  O   O732      1.0  0.68750  0.84375  0.25000  1.0000
  O   O733      1.0  0.75000  0.84375  0.25000  1.0000
  O   O734      1.0  0.81250  0.84375  0.25000  1.0000
  O   O735      1.0  0.87500  0.84375  0.25000  1.0000
  O   O736      1.0  0.93750  0.84375  0.25000  1.0000
  O   O737      1.0  0.00000  0.90625  0.25000  1.0000
  O   O738      1.0  0.06250  0.90625  0.25000  1.0000
  O   O739      1.0  0.12500  0.90625  0.25000  1.0000
  O   O740      1.0  0.18750  0.90625  0.25000  1.0000
  O   O741      1.0  0.25000  0.90625  0.25000  1.0000
  O   O742      1.0  0.31250  0.90625  0.25000  1.0000
  O   O743      1.0  0.37500  0.90625  0.25000  1.0000
  O   O744      1.0  0.43750  0.90625  0.25000  1.0000
  O   O745      1.0  0.50000  0.90625  0.25000  1.0000
  O   O746      1.0  0.56250  0.90625  0.25000  1.0000
  O   O747      1.0  0.62500  0.90625  0.25000  1.0000
  O   O748      1.0  0.68750  0.90625  0.25000  1.0000
  O   O749      1.0  0.75000  0.90625  0.25000  1.0000
  O   O750      1.0  0.81250  0.90625  0.25000  1.0000
  O   O751      1.0  0.87500  0.90625  0.25000  1.0000
  O   O752      1.0  0.93750  0.90625  0.25000  1.0000
  O   O753      1.0  0.00000  0.96875  0.25000  1.0000
  O   O754      1.0  0.06250  0.96875  0.25000  1.0000
  O   O755      1.0  0.12500  0.96875  0.25000  1.0000
  O   O756      1.0  0.18750  0.96875  0.25000  1.0000
  O   O757      1.0  0.25000  0.96875  0.25000  1.0000
  O   O758      1.0  0.31250  0.96875  0.25000  1.0000
  O   O759      1.0  0.37500  0.96875  0.25000  1.0000
  O   O760      1.0  0.43750  0.96875  0.25000  1.0000
  O   O761      1.0  0.50000  0.96875  0.25000  1.0000
  O   O762      1.0  0.56250  0.96875  0.25000  1.0000
  O   O763      1.0  0.62500  0.96875  0.25000  1.0000
  O   O764      1.0  0.68750  0.96875  0.25000  1.0000
  O   O765      1.0  0.75000  0.96875  0.25000  1.0000
  O   O766      1.0  0.81250  0.96875  0.25000  1.0000
  O   O767      1.0  0.87500  0.96875  0.25000  1.0000
  O   O768      1.0  0.93750  0.96875  0.25000  1.0000
  O   O769      1.0  0.00000  0.03125  0.75000  1.0000
  O   O770      1.0  0.06250  0.03125  0.75000  1.0000
  O   O771      1.0  0.12500  0.03125  0.75000  1.0000
  O   O772      1.0  0.18750  0.03125  0.75000  1.0000
  O   O773      1.0  0.25000  0.03125  0.75000  1.0000
  O   O774      1.0  0.31250  0.03125  0.75000  1.0000
  O   O775      1.0  0.37500  0.03125  0.75000  1.0000
  O   O776      1.0  0.43750  0.03125  0.75000  1.0000
  O   O777      1.0  0.50000  0.03125  0.75000  1.0000
  O   O778      1.0  0.56250  0.03125  0.75000  1.0000
  O   O779      1.0  0.62500  0.03125  0.75000  1.0000
  O   O780      1.0  0.68750  0.03125  0.75000  1.0000
  O   O781      1.0  0.75000  0.03125  0.75000  1.0000
  O   O782      1.0  0.81250  0.03125  0.75000  1.0000
  O   O783      1.0  0.87500  0.03125  0.75000  1.0000
  O   O784      1.0  0.93750  0.03125  0.75000  1.0000
  O   O785      1.0  0.00000  0.09375  0.75000  1.0000
  O   O786      1.0  0.06250  0.09375  0.75000  1.0000
  O   O787      1.0  0.12500  0.09375  0.75000  1.0000
  O   O788      1.0  0.18750  0.09375  0.75000  1.0000
  O   O789      1.0  0.25000  0.09375  0.75000  1.0000
  O   O790      1.0  0.31250  0.09375  0.75000  1.0000
  O   O791      1.0  0.37500  0.09375  0.75000  1.0000
  O   O792      1.0  0.43750  0.09375  0.75000  1.0000
  O   O793      1.0  0.50000  0.09375  0.75000  1.0000
  O   O794      1.0  0.56250  0.09375  0.75000  1.0000
  O   O795      1.0  0.62500  0.09375  0.75000  1.0000
  O   O796      1.0  0.68750  0.09375  0.75000  1.0000
  O   O797      1.0  0.75000  0.09375  0.75000  1.0000
  O   O798      1.0  0.81250  0.09375  0.75000  1.0000
  O   O799      1.0  0.87500  0.09375  0.75000  1.0000
  O   O800      1.0  0.93750  0.09375  0.75000  1.0000
  O   O801      1.0  0.00000  0.15625  0.75000  1.0000
  O   O802      1.0  0.06250  0.15625  0.75000  1.0000
  O   O803      1.0  0.12500  0.15625  0.75000  1.0000
  O   O804      1.0  0.18750  0.15625  0.75000  1.0000
  O   O805      1.0  0.25000  0.15625  0.75000  1.0000
  O   O806      1.0  0.31250  0.15625  0.75000  1.0000
  O   O807      1.0  0.37500  0.15625  0.75000  1.0000
  O   O808      1.0  0.43750  0.15625  0.75000  1.0000
  O   O809      1.0  0.50000  0.15625  0.75000  1.0000
  O   O810      1.0  0.56250  0.15625  0.75000  1.0000
  O   O811      1.0  0.62500  0.15625  0.75000  1.0000
  O   O812      1.0  0.68750  0.15625  0.75000  1.0000
  O   O813      1.0  0.75000  0.15625  0.75000  1.0000
  O   O814      1.0  0.81250  0.15625  0.75000  1.0000
  O   O815      1.0  0.87500  0.15625  0.75000  1.0000
  O   O816      1.0  0.93750  0.15625  0.75000  1.0000
  O   O817      1.0  0.00000  0.21875  0.75000  1.0000
  O   O818      1.0  0.06250  0.21875  0.75000  1.0000
  O   O819      1.0  0.12500  0.21875  0.75000  1.0000
  O   O820      1.0  0.18750  0.21875  0.75000  1.0000
  O   O821      1.0  0.25000  0.21875  0.75000  1.0000
  O   O822      1.0  0.31250  0.21875  0.75000  1.0000
  O   O823      1.0  0.37500  0.21875  0.75000  1.0000
  O   O824      1.0  0.43750  0.21875  0.75000  1.0000
  O   O825      1.0  0.50000  0.21875  0.75000  1.0000
  O   O826      1.0  0.56250  0.21875  0.75000  1.0000
  O   O827      1.0  0.62500  0.21875  0.75000  1.0000
  O   O828      1.0  0.68750  0.21875  0.75000  1.0000
  O   O829      1.0  0.75000  0.21875  0.75000  1.0000
  O   O830      1.0  0.81250  0.21875  0.75000  1.0000
  O   O831      1.0  0.87500  0.21875  0.75000  1.0000
  O   O832      1.0  0.93750  0.21875  0.75000  1.0000
  O   O833      1.0  0.00000  0.28125  0.75000  1.0000
  O   O834      1.0  0.06250  0.28125  0.75000  1.0000
  O   O835      1.0  0.12500  0.28125  0.75000  1.0000
  O   O836      1.0  0.18750  0.28125  0.75000  1.0000
  O   O837      1.0  0.25000  0.28125  0.75000  1.0000
  O   O838      1.0  0.31250  0.28125  0.75000  1.0000
  O   O839      1.0  0.37500  0.28125  0.75000  1.0000
  O   O840      1.0  0.43750  0.28125  0.75000  1.0000
  O   O841      1.0  0.50000  0.28125  0.75000  1.0000
  O   O842      1.0  0.56250  0.28125  0.75000  1.0000
  O   O843      1.0  0.62500  0.28125  0.75000  1.0000
  O   O844      1.0  0.68750  0.28125  0.75000  1.0000
  O   O845      1.0  0.75000  0.28125  0.75000  1.0000
  O   O846      1.0  0.81250  0.28125  0.75000  1.0000
  O   O847      1.0  0.87500  0.28125  0.75000  1.0000
  O   O848      1.0  0.93750  0.28125  0.75000  1.0000
  O   O849      1.0  0.00000  0.34375  0.75000  1.0000
  O   O850      1.0  0.06250  0.34375  0.75000  1.0000
  O   O851      1.0  0.12500  0.34375  0.75000  1.0000
  O   O852      1.0  0.18750  0.34375  0.75000  1.0000
  O   O853      1.0  0.25000  0.34375  0.75000  1.0000
  O   O854      1.0  0.31250  0.34375  0.75000  1.0000
  O   O855      1.0  0.37500  0.34375  0.75000  1.0000
  O   O856      1.0  0.43750  0.34375  0.75000  1.0000
  O   O857      1.0  0.50000  0.34375  0.75000  1.0000
  O   O858      1.0  0.56250  0.34375  0.75000  1.0000
  O   O859      1.0  0.62500  0.34375  0.75000  1.0000
  O   O860      1.0  0.68750  0.34375  0.75000  1.0000
  O   O861      1.0  0.75000  0.34375  0.75000  1.0000
  O   O862      1.0  0.81250  0.34375  0.75000  1.0000
  O   O863      1.0  0.87500  0.34375  0.75000  1.0000
  O   O864      1.0  0.93750  0.34375  0.75000  1.0000
  O   O865      1.0  0.00000  0.40625  0.75000  1.0000
  O   O866      1.0  0.06250  0.40625  0.75000  1.0000
  O   O867      1.0  0.12500  0.40625  0.75000  1.0000
  O   O868      1.0  0.18750  0.40625  0.75000  1.0000
  O   O869      1.0  0.25000  0.40625  0.75000  1.0000
  O   O870      1.0  0.31250  0.40625  0.75000  1.0000
  O   O871      1.0  0.37500  0.40625  0.75000  1.0000
  O   O872      1.0  0.43750  0.40625  0.75000  1.0000
  O   O873      1.0  0.50000  0.40625  0.75000  1.0000
  O   O874      1.0  0.56250  0.40625  0.75000  1.0000
  O   O875      1.0  0.62500  0.40625  0.75000  1.0000
  O   O876      1.0  0.68750  0.40625  0.75000  1.0000
  O   O877      1.0  0.75000  0.40625  0.75000  1.0000
  O   O878      1.0  0.81250  0.40625  0.75000  1.0000
  O   O879      1.0  0.87500  0.40625  0.75000  1.0000
  O   O880      1.0  0.93750  0.40625  0.75000  1.0000
  O   O881      1.0  0.00000  0.46875  0.75000  1.0000
  O   O882      1.0  0.06250  0.46875  0.75000  1.0000
  O   O883      1.0  0.12500  0.46875  0.75000  1.0000
  O   O884      1.0  0.18750  0.46875  0.75000  1.0000
  O   O885      1.0  0.25000  0.46875  0.75000  1.0000
  O   O886      1.0  0.31250  0.46875  0.75000  1.0000
  O   O887      1.0  0.37500  0.46875  0.75000  1.0000
  O   O888      1.0  0.43750  0.46875  0.75000  1.0000
  O   O889      1.0  0.50000  0.46875  0.75000  1.0000
  O   O890      1.0  0.56250  0.46875  0.75000  1.0000
  O   O891      1.0  0.62500  0.46875  0.75000  1.0000
  O   O892      1.0  0.68750  0.46875  0.75000  1.0000
  O   O893      1.0  0.75000  0.46875  0.75000  1.0000
  O   O894      1.0  0.81250  0.46875  0.75000  1.0000
  O   O895      1.0  0.87500  0.46875  0.75000  1.0000
  O   O896      1.0  0.93750  0.46875  0.75000  1.0000
  O   O897      1.0  0.00000  0.53125  0.75000  1.0000
  O   O898      1.0  0.06250  0.53125  0.75000  1.0000
  O   O899      1.0  0.12500  0.53125  0.75000  1.0000
  O   O900      1.0  0.18750  0.53125  0.75000  1.0000
  O   O901      1.0  0.25000  0.53125  0.75000  1.0000
  O   O902      1.0  0.31250  0.53125  0.75000  1.0000
  O   O903      1.0  0.37500  0.53125  0.75000  1.0000
  O   O904      1.0  0.43750  0.53125  0.75000  1.0000
  O   O905      1.0  0.50000  0.53125  0.75000  1.0000
  O   O906      1.0  0.56250  0.53125  0.75000  1.0000
  O   O907      1.0  0.62500  0.53125  0.75000  1.0000
  O   O908      1.0  0.68750  0.53125  0.75000  1.0000
  O   O909      1.0  0.75000  0.53125  0.75000  1.0000
  O   O910      1.0  0.81250  0.53125  0.75000  1.0000
  O   O911      1.0  0.87500  0.53125  0.75000  1.0000
  O   O912      1.0  0.93750  0.53125  0.75000  1.0000
  O   O913      1.0  0.00000  0.59375  0.75000  1.0000
  O   O914      1.0  0.06250  0.59375  0.75000  1.0000
  O   O915      1.0  0.12500  0.59375  0.75000  1.0000
  O   O916      1.0  0.18750  0.59375  0.75000  1.0000
  O   O917      1.0  0.25000  0.59375  0.75000  1.0000
  O   O918      1.0  0.31250  0.59375  0.75000  1.0000
  O   O919      1.0  0.37500  0.59375  0.75000  1.0000
  O   O920      1.0  0.43750  0.59375  0.75000  1.0000
  O   O921      1.0  0.50000  0.59375  0.75000  1.0000
  O   O922      1.0  0.56250  0.59375  0.75000  1.0000
  O   O923      1.0  0.62500  0.59375  0.75000  1.0000
  O   O924      1.0  0.68750  0.59375  0.75000  1.0000
  O   O925      1.0  0.75000  0.59375  0.75000  1.0000
  O   O926      1.0  0.81250  0.59375  0.75000  1.0000
  O   O927      1.0  0.87500  0.59375  0.75000  1.0000
  O   O928      1.0  0.93750  0.59375  0.75000  1.0000
  O   O929      1.0  0.00000  0.65625  0.75000  1.0000
  O   O930      1.0  0.06250  0.65625  0.75000  1.0000
  O   O931      1.0  0.12500  0.65625  0.75000  1.0000
  O   O932      1.0  0.18750  0.65625  0.75000  1.0000
  O   O933      1.0  0.25000  0.65625  0.75000  1.0000
  O   O934      1.0  0.31250  0.65625  0.75000  1.0000
  O   O935      1.0  0.37500  0.65625  0.75000  1.0000
  O   O936      1.0  0.43750  0.65625  0.75000  1.0000
  O   O937      1.0  0.50000  0.65625  0.75000  1.0000
  O   O938      1.0  0.56250  0.65625  0.75000  1.0000
  O   O939      1.0  0.62500  0.65625  0.75000  1.0000
  O   O940      1.0  0.68750  0.65625  0.75000  1.0000
  O   O941      1.0  0.75000  0.65625  0.75000  1.0000
  O   O942      1.0  0.81250  0.65625  0.75000  1.0000
  O   O943      1.0  0.87500  0.65625  0.75000  1.0000
  O   O944      1.0  0.93750  0.65625  0.75000  1.0000
  O   O945      1.0  0.00000  0.71875  0.75000  1.0000
  O   O946      1.0  0.06250  0.71875  0.75000  1.0000
  O   O947      1.0  0.12500  0.71875  0.75000  1.0000
  O   O948      1.0  0.18750  0.71875  0.75000  1.0000
  O   O949      1.0  0.25000  0.71875  0.75000  1.0000
  O   O950      1.0  0.31250  0.71875  0.75000  1.0000
  O   O951      1.0  0.37500  0.71875  0.75000  1.0000
  O   O952      1.0  0.43750  0.71875  0.75000  1.0000
  O   O953      1.0  0.50000  0.71875  0.75000  1.0000
  O   O954      1.0  0.56250  0.71875  0.75000  1.0000
  O   O955      1.0  0.62500  0.71875  0.75000  1.0000
  O   O956      1.0  0.68750  0.71875  0.75000  1.0000
  O   O957      1.0  0.75000  0.71875  0.75000  1.0000
  O   O958      1.0  0.81250  0.71875  0.75000  1.0000
  O   O959      1.0  0.87500  0.71875  0.75000  1.0000
  O   O960      1.0  0.93750  0.71875  0.75000  1.0000
  O   O961      1.0  0.00000  0.78125  0.75000  1.0000
  O   O962      1.0  0.06250  0.78125  0.75000  1.0000
  O   O963      1.0  0.12500  0.78125  0.75000  1.0000
  O   O964      1.0  0.18750  0.78125  0.75000  1.0000
  O   O965      1.0  0.25000  0.78125  0.75000  1.0000
  O   O966      1.0  0.31250  0.78125  0.75000  1.0000
  O   O967      1.0  0.37500  0.78125  0.75000  1.0000
  O   O968      1.0  0.43750  0.78125  0.75000  1.0000
  O   O969      1.0  0.50000  0.78125  0.75000  1.0000
  O   O970      1.0  0.56250  0.78125  0.75000  1.0000
  O   O971      1.0  0.62500  0.78125  0.75000  1.0000
  O   O972      1.0  0.68750  0.78125  0.75000  1.0000
  O   O973      1.0  0.75000  0.78125  0.75000  1.0000
  O   O974      1.0  0.81250  0.78125  0.75000  1.0000
  O   O975      1.0  0.87500  0.78125  0.75000  1.0000
  O   O976      1.0  0.93750  0.78125  0.75000  1.0000
  O   O977      1.0  0.00000  0.84375  0.75000  1.0000
  O   O978      1.0  0.06250  0.84375  0.75000  1.0000
  O   O979      1.0  0.12500  0.84375  0.75000  1.0000
  O   O980      1.0  0.18750  0.84375  0.75000  1.0000
  O   O981      1.0  0.25000  0.84375  0.75000  1.0000
  O   O982      1.0  0.31250  0.84375  0.75000  1.0000
  O   O983      1.0  0.37500  0.84375  0.75000  1.0000
  O   O984      1.0  0.43750  0.84375  0.75000  1.0000
  O   O985      1.0  0.50000  0.84375  0.75000  1.0000
  O   O986      1.0  0.56250  0.84375  0.75000  1.0000
  O   O987      1.0  0.62500  0.84375  0.75000  1.0000
  O   O988      1.0  0.68750  0.84375  0.75000  1.0000
  O   O989      1.0  0.75000  0.84375  0.75000  1.0000
  O   O990      1.0  0.81250  0.84375  0.75000  1.0000
  O   O991      1.0  0.87500  0.84375  0.75000  1.0000
  O   O992      1.0  0.93750  0.84375  0.75000  1.0000
  O   O993      1.0  0.00000  0.90625  0.75000  1.0000
  O   O994      1.0  0.06250  0.90625  0.75000  1.0000
  O   O995      1.0  0.12500  0.90625  0.75000  1.0000
  O   O996      1.0  0.18750  0.90625  0.75000  1.0000
  O   O997      1.0  0.25000  0.90625  0.75000  1.0000
  O   O998      1.0  0.31250  0.90625  0.75000  1.0000
  O   O999      1.0  0.37500  0.90625  0.75000  1.0000
  O   O1000     1.0  0.43750  0.90625  0.75000  1.0000
  O   O1001     1.0  0.50000  0.90625  0.75000  1.0000
  O   O1002     1.0  0.56250  0.90625  0.75000  1.0000
  O   O1003     1.0  0.62500  0.90625  0.75000  1.0000
  O   O1004     1.0  0.68750  0.90625  0.75000  1.0000
  O   O1005     1.0  0.75000  0.90625  0.75000  1.0000
  O   O1006     1.0  0.81250  0.90625  0.75000  1.0000
  O   O1007     1.0  0.87500  0.90625  0.75000  1.0000
  O   O1008     1.0  0.93750  0.90625  0.75000  1.0000
  O   O1009     1.0  0.00000  0.96875  0.75000  1.0000
  O   O1010     1.0  0.06250  0.96875  0.75000  1.0000
  O   O1011     1.0  0.12500  0.96875  0.75000  1.0000
  O   O1012     1.0  0.18750  0.96875  0.75000  1.0000
  O   O1013     1.0  0.25000  0.96875  0.75000  1.0000
  O   O1014     1.0  0.31250  0.96875  0.75000  1.0000
  O   O1015     1.0  0.37500  0.96875  0.75000  1.0000
  O   O1016     1.0  0.43750  0.96875  0.75000  1.0000
  O   O1017     1.0  0.50000  0.96875  0.75000  1.0000
  O   O1018     1.0  0.56250  0.96875  0.75000  1.0000
  O   O1019     1.0  0.62500  0.96875  0.75000  1.0000
  O   O1020     1.0  0.68750  0.96875  0.75000  1.0000
  O   O1021     1.0  0.75000  0.96875  0.75000  1.0000
  O   O1022     1.0  0.81250  0.96875  0.75000  1.0000
  O   O1023     1.0  0.87500  0.96875  0.75000  1.0000
  O   O1024     1.0  0.93750  0.96875  0.75000  1.0000
  O   O1025     1.0  0.03125  0.00000  0.25000  1.0000
  O   O1026     1.0  0.09375  0.00000  0.25000  1.0000
  O   O1027     1.0  0.15625  0.00000  0.25000  1.0000
  O   O1028     1.0  0.21875  0.00000  0.25000  1.0000
  O   O1029     1.0  0.28125  0.00000  0.25000  1.0000
  O   O1030     1.0  0.34375  0.00000  0.25000  1.0000
  O   O1031     1.0  0.40625  0.00000  0.25000  1.0000
  O   O1032     1.0  0.46875  0.00000  0.25000  1.0000
  O   O1033     1.0  0.53125  0.00000  0.25000  1.0000
  O   O1034     1.0  0.59375  0.00000  0.25000  1.0000
  O   O1035     1.0  0.65625  0.00000  0.25000  1.0000
  O   O1036     1.0  0.71875  0.00000  0.25000  1.0000
  O   O1037     1.0  0.78125  0.00000  0.25000  1.0000
  O   O1038     1.0  0.84375  0.00000  0.25000  1.0000
  O   O1039     1.0  0.90625  0.00000  0.25000  1.0000
  O   O1040     1.0  0.96875  0.00000  0.25000  1.0000
  O   O1041     1.0  0.03125  0.06250  0.25000  1.0000
  O   O1042     1.0  0.09375  0.06250  0.25000  1.0000
  O   O1043     1.0  0.15625  0.06250  0.25000  1.0000
  O   O1044     1.0  0.21875  0.06250  0.25000  1.0000
  O   O1045     1.0  0.28125  0.06250  0.25000  1.0000
  O   O1046     1.0  0.34375  0.06250  0.25000  1.0000
  O   O1047     1.0  0.40625  0.06250  0.25000  1.0000
  O   O1048     1.0  0.46875  0.06250  0.25000  1.0000
  O   O1049     1.0  0.53125  0.06250  0.25000  1.0000
  O   O1050     1.0  0.59375  0.06250  0.25000  1.0000
  O   O1051     1.0  0.65625  0.06250  0.25000  1.0000
  O   O1052     1.0  0.71875  0.06250  0.25000  1.0000
  O   O1053     1.0  0.78125  0.06250  0.25000  1.0000
  O   O1054     1.0  0.84375  0.06250  0.25000  1.0000
  O   O1055     1.0  0.90625  0.06250  0.25000  1.0000
  O   O1056     1.0  0.96875  0.06250  0.25000  1.0000
  O   O1057     1.0  0.03125  0.12500  0.25000  1.0000
  O   O1058     1.0  0.09375  0.12500  0.25000  1.0000
  O   O1059     1.0  0.15625  0.12500  0.25000  1.0000
  O   O1060     1.0  0.21875  0.12500  0.25000  1.0000
  O   O1061     1.0  0.28125  0.12500  0.25000  1.0000
  O   O1062     1.0  0.34375  0.12500  0.25000  1.0000
  O   O1063     1.0  0.40625  0.12500  0.25000  1.0000
  O   O1064     1.0  0.46875  0.12500  0.25000  1.0000
  O   O1065     1.0  0.53125  0.12500  0.25000  1.0000
  O   O1066     1.0  0.59375  0.12500  0.25000  1.0000
  O   O1067     1.0  0.65625  0.12500  0.25000  1.0000
  O   O1068     1.0  0.71875  0.12500  0.25000  1.0000
  O   O1069     1.0  0.78125  0.12500  0.25000  1.0000
  O   O1070     1.0  0.84375  0.12500  0.25000  1.0000
  O   O1071     1.0  0.90625  0.12500  0.25000  1.0000
  O   O1072     1.0  0.96875  0.12500  0.25000  1.0000
  O   O1073     1.0  0.03125  0.18750  0.25000  1.0000
  O   O1074     1.0  0.09375  0.18750  0.25000  1.0000
  O   O1075     1.0  0.15625  0.18750  0.25000  1.0000
  O   O1076     1.0  0.21875  0.18750  0.25000  1.0000
  O   O1077     1.0  0.28125  0.18750  0.25000  1.0000
  O   O1078     1.0  0.34375  0.18750  0.25000  1.0000
  O   O1079     1.0  0.40625  0.18750  0.25000  1.0000
  O   O1080     1.0  0.46875  0.18750  0.25000  1.0000
  O   O1081     1.0  0.53125  0.18750  0.25000  1.0000
  O   O1082     1.0  0.59375  0.18750  0.25000  1.0000
  O   O1083     1.0  0.65625  0.18750  0.25000  1.0000
  O   O1084     1.0  0.71875  0.18750  0.25000  1.0000
  O   O1085     1.0  0.78125  0.18750  0.25000  1.0000
  O   O1086     1.0  0.84375  0.18750  0.25000  1.0000
  O   O1087     1.0  0.90625  0.18750  0.25000  1.0000
  O   O1088     1.0  0.96875  0.18750  0.25000  1.0000
  O   O1089     1.0  0.03125  0.25000  0.25000  1.0000
  O   O1090     1.0  0.09375  0.25000  0.25000  1.0000
  O   O1091     1.0  0.15625  0.25000  0.25000  1.0000
  O   O1092     1.0  0.21875  0.25000  0.25000  1.0000
  O   O1093     1.0  0.28125  0.25000  0.25000  1.0000
  O   O1094     1.0  0.34375  0.25000  0.25000  1.0000
  O   O1095     1.0  0.40625  0.25000  0.25000  1.0000
  O   O1096     1.0  0.46875  0.25000  0.25000  1.0000
  O   O1097     1.0  0.53125  0.25000  0.25000  1.0000
  O   O1098     1.0  0.59375  0.25000  0.25000  1.0000
  O   O1099     1.0  0.65625  0.25000  0.25000  1.0000
  O   O1100     1.0  0.71875  0.25000  0.25000  1.0000
  O   O1101     1.0  0.78125  0.25000  0.25000  1.0000
  O   O1102     1.0  0.84375  0.25000  0.25000  1.0000
  O   O1103     1.0  0.90625  0.25000  0.25000  1.0000
  O   O1104     1.0  0.96875  0.25000  0.25000  1.0000
  O   O1105     1.0  0.03125  0.31250  0.25000  1.0000
  O   O1106     1.0  0.09375  0.31250  0.25000  1.0000
  O   O1107     1.0  0.15625  0.31250  0.25000  1.0000
  O   O1108     1.0  0.21875  0.31250  0.25000  1.0000
  O   O1109     1.0  0.28125  0.31250  0.25000  1.0000
  O   O1110     1.0  0.34375  0.31250  0.25000  1.0000
  O   O1111     1.0  0.40625  0.31250  0.25000  1.0000
  O   O1112     1.0  0.46875  0.31250  0.25000  1.0000
  O   O1113     1.0  0.53125  0.31250  0.25000  1.0000
  O   O1114     1.0  0.59375  0.31250  0.25000  1.0000
  O   O1115     1.0  0.65625  0.31250  0.25000  1.0000
  O   O1116     1.0  0.71875  0.31250  0.25000  1.0000
  O   O1117     1.0  0.78125  0.31250  0.25000  1.0000
  O   O1118     1.0  0.84375  0.31250  0.25000  1.0000
  O   O1119     1.0  0.90625  0.31250  0.25000  1.0000
  O   O1120     1.0  0.96875  0.31250  0.25000  1.0000
  O   O1121     1.0  0.03125  0.37500  0.25000  1.0000
  O   O1122     1.0  0.09375  0.37500  0.25000  1.0000
  O   O1123     1.0  0.15625  0.37500  0.25000  1.0000
  O   O1124     1.0  0.21875  0.37500  0.25000  1.0000
  O   O1125     1.0  0.28125  0.37500  0.25000  1.0000
  O   O1126     1.0  0.34375  0.37500  0.25000  1.0000
  O   O1127     1.0  0.40625  0.37500  0.25000  1.0000
  O   O1128     1.0  0.46875  0.37500  0.25000  1.0000
  O   O1129     1.0  0.53125  0.37500  0.25000  1.0000
  O   O1130     1.0  0.59375  0.37500  0.25000  1.0000
  O   O1131     1.0  0.65625  0.37500  0.25000  1.0000
  O   O1132     1.0  0.71875  0.37500  0.25000  1.0000
  O   O1133     1.0  0.78125  0.37500  0.25000  1.0000
  O   O1134     1.0  0.84375  0.37500  0.25000  1.0000
  O   O1135     1.0  0.90625  0.37500  0.25000  1.0000
  O   O1136     1.0  0.96875  0.37500  0.25000  1.0000
  O   O1137     1.0  0.03125  0.43750  0.25000  1.0000
  O   O1138     1.0  0.09375  0.43750  0.25000  1.0000
  O   O1139     1.0  0.15625  0.43750  0.25000  1.0000
  O   O1140     1.0  0.21875  0.43750  0.25000  1.0000
  O   O1141     1.0  0.28125  0.43750  0.25000  1.0000
  O   O1142     1.0  0.34375  0.43750  0.25000  1.0000
  O   O1143     1.0  0.40625  0.43750  0.25000  1.0000
  O   O1144     1.0  0.46875  0.43750  0.25000  1.0000
  O   O1145     1.0  0.53125  0.43750  0.25000  1.0000
  O   O1146     1.0  0.59375  0.43750  0.25000  1.0000
  O   O1147     1.0  0.65625  0.43750  0.25000  1.0000
  O   O1148     1.0  0.71875  0.43750  0.25000  1.0000
  O   O1149     1.0  0.78125  0.43750  0.25000  1.0000
  O   O1150     1.0  0.84375  0.43750  0.25000  1.0000
  O   O1151     1.0  0.90625  0.43750  0.25000  1.0000
  O   O1152     1.0  0.96875  0.43750  0.25000  1.0000
  O   O1153     1.0  0.03125  0.50000  0.25000  1.0000
  O   O1154     1.0  0.09375  0.50000  0.25000  1.0000
  O   O1155     1.0  0.15625  0.50000  0.25000  1.0000
  O   O1156     1.0  0.21875  0.50000  0.25000  1.0000
  O   O1157     1.0  0.28125  0.50000  0.25000  1.0000
  O   O1158     1.0  0.34375  0.50000  0.25000  1.0000
  O   O1159     1.0  0.40625  0.50000  0.25000  1.0000
  O   O1160     1.0  0.46875  0.50000  0.25000  1.0000
  O   O1161     1.0  0.53125  0.50000  0.25000  1.0000
  O   O1162     1.0  0.59375  0.50000  0.25000  1.0000
  O   O1163     1.0  0.65625  0.50000  0.25000  1.0000
  O   O1164     1.0  0.71875  0.50000  0.25000  1.0000
  O   O1165     1.0  0.78125  0.50000  0.25000  1.0000
  O   O1166     1.0  0.84375  0.50000  0.25000  1.0000
  O   O1167     1.0  0.90625  0.50000  0.25000  1.0000
  O   O1168     1.0  0.96875  0.50000  0.25000  1.0000
  O   O1169     1.0  0.03125  0.56250  0.25000  1.0000
  O   O1170     1.0  0.09375  0.56250  0.25000  1.0000
  O   O1171     1.0  0.15625  0.56250  0.25000  1.0000
  O   O1172     1.0  0.21875  0.56250  0.25000  1.0000
  O   O1173     1.0  0.28125  0.56250  0.25000  1.0000
  O   O1174     1.0  0.34375  0.56250  0.25000  1.0000
  O   O1175     1.0  0.40625  0.56250  0.25000  1.0000
  O   O1176     1.0  0.46875  0.56250  0.25000  1.0000
  O   O1177     1.0  0.53125  0.56250  0.25000  1.0000
  O   O1178     1.0  0.59375  0.56250  0.25000  1.0000
  O   O1179     1.0  0.65625  0.56250  0.25000  1.0000
  O   O1180     1.0  0.71875  0.56250  0.25000  1.0000
  O   O1181     1.0  0.78125  0.56250  0.25000  1.0000
  O   O1182     1.0  0.84375  0.56250  0.25000  1.0000
  O   O1183     1.0  0.90625  0.56250  0.25000  1.0000
  O   O1184     1.0  0.96875  0.56250  0.25000  1.0000
  O   O1185     1.0  0.03125  0.62500  0.25000  1.0000
  O   O1186     1.0  0.09375  0.62500  0.25000  1.0000
  O   O1187     1.0  0.15625  0.62500  0.25000  1.0000
  O   O1188     1.0  0.21875  0.62500  0.25000  1.0000
  O   O1189     1.0  0.28125  0.62500  0.25000  1.0000
  O   O1190     1.0  0.34375  0.62500  0.25000  1.0000
  O   O1191     1.0  0.40625  0.62500  0.25000  1.0000
  O   O1192     1.0  0.46875  0.62500  0.25000  1.0000
  O   O1193     1.0  0.53125  0.62500  0.25000  1.0000
  O   O1194     1.0  0.59375  0.62500  0.25000  1.0000
  O   O1195     1.0  0.65625  0.62500  0.25000  1.0000
  O   O1196     1.0  0.71875  0.62500  0.25000  1.0000
  O   O1197     1.0  0.78125  0.62500  0.25000  1.0000
  O   O1198     1.0  0.84375  0.62500  0.25000  1.0000
  O   O1199     1.0  0.90625  0.62500  0.25000  1.0000
  O   O1200     1.0  0.96875  0.62500  0.25000  1.0000
  O   O1201     1.0  0.03125  0.68750  0.25000  1.0000
  O   O1202     1.0  0.09375  0.68750  0.25000  1.0000
  O   O1203     1.0  0.15625  0.68750  0.25000  1.0000
  O   O1204     1.0  0.21875  0.68750  0.25000  1.0000
  O   O1205     1.0  0.28125  0.68750  0.25000  1.0000
  O   O1206     1.0  0.34375  0.68750  0.25000  1.0000
  O   O1207     1.0  0.40625  0.68750  0.25000  1.0000
  O   O1208     1.0  0.46875  0.68750  0.25000  1.0000
  O   O1209     1.0  0.53125  0.68750  0.25000  1.0000
  O   O1210     1.0  0.59375  0.68750  0.25000  1.0000
  O   O1211     1.0  0.65625  0.68750  0.25000  1.0000
  O   O1212     1.0  0.71875  0.68750  0.25000  1.0000
  O   O1213     1.0  0.78125  0.68750  0.25000  1.0000
  O   O1214     1.0  0.84375  0.68750  0.25000  1.0000
  O   O1215     1.0  0.90625  0.68750  0.25000  1.0000
  O   O1216     1.0  0.96875  0.68750  0.25000  1.0000
  O   O1217     1.0  0.03125  0.75000  0.25000  1.0000
  O   O1218     1.0  0.09375  0.75000  0.25000  1.0000
  O   O1219     1.0  0.15625  0.75000  0.25000  1.0000
  O   O1220     1.0  0.21875  0.75000  0.25000  1.0000
  O   O1221     1.0  0.28125  0.75000  0.25000  1.0000
  O   O1222     1.0  0.34375  0.75000  0.25000  1.0000
  O   O1223     1.0  0.40625  0.75000  0.25000  1.0000
  O   O1224     1.0  0.46875  0.75000  0.25000  1.0000
  O   O1225     1.0  0.53125  0.75000  0.25000  1.0000
  O   O1226     1.0  0.59375  0.75000  0.25000  1.0000
  O   O1227     1.0  0.65625  0.75000  0.25000  1.0000
  O   O1228     1.0  0.71875  0.75000  0.25000  1.0000
  O   O1229     1.0  0.78125  0.75000  0.25000  1.0000
  O   O1230     1.0  0.84375  0.75000  0.25000  1.0000
  O   O1231     1.0  0.90625  0.75000  0.25000  1.0000
  O   O1232     1.0  0.96875  0.75000  0.25000  1.0000
  O   O1233     1.0  0.03125  0.81250  0.25000  1.0000
  O   O1234     1.0  0.09375  0.81250  0.25000  1.0000
  O   O1235     1.0  0.15625  0.81250  0.25000  1.0000
  O   O1236     1.0  0.21875  0.81250  0.25000  1.0000
  O   O1237     1.0  0.28125  0.81250  0.25000  1.0000
  O   O1238     1.0  0.34375  0.81250  0.25000  1.0000
  O   O1239     1.0  0.40625  0.81250  0.25000  1.0000
  O   O1240     1.0  0.46875  0.81250  0.25000  1.0000
  O   O1241     1.0  0.53125  0.81250  0.25000  1.0000
  O   O1242     1.0  0.59375  0.81250  0.25000  1.0000
  O   O1243     1.0  0.65625  0.81250  0.25000  1.0000
  O   O1244     1.0  0.71875  0.81250  0.25000  1.0000
  O   O1245     1.0  0.78125  0.81250  0.25000  1.0000
  O   O1246     1.0  0.84375  0.81250  0.25000  1.0000
  O   O1247     1.0  0.90625  0.81250  0.25000  1.0000
  O   O1248     1.0  0.96875  0.81250  0.25000  1.0000
  O   O1249     1.0  0.03125  0.87500  0.25000  1.0000
  O   O1250     1.0  0.09375  0.87500  0.25000  1.0000
  O   O1251     1.0  0.15625  0.87500  0.25000  1.0000
  O   O1252     1.0  0.21875  0.87500  0.25000  1.0000
  O   O1253     1.0  0.28125  0.87500  0.25000  1.0000
  O   O1254     1.0  0.34375  0.87500  0.25000  1.0000
  O   O1255     1.0  0.40625  0.87500  0.25000  1.0000
  O   O1256     1.0  0.46875  0.87500  0.25000  1.0000
  O   O1257     1.0  0.53125  0.87500  0.25000  1.0000
  O   O1258     1.0  0.59375  0.87500  0.25000  1.0000
  O   O1259     1.0  0.65625  0.87500  0.25000  1.0000
  O   O1260     1.0  0.71875  0.87500  0.25000  1.0000
  O   O1261     1.0  0.78125  0.87500  0.25000  1.0000
  O   O1262     1.0  0.84375  0.87500  0.25000  1.0000
  O   O1263     1.0  0.90625  0.87500  0.25000  1.0000
  O   O1264     1.0  0.96875  0.87500  0.25000  1.0000
  O   O1265     1.0  0.03125  0.93750  0.25000  1.0000
  O   O1266     1.0  0.09375  0.93750  0.25000  1.0000
  O   O1267     1.0  0.15625  0.93750  0.25000  1.0000
  O   O1268     1.0  0.21875  0.93750  0.25000  1.0000
  O   O1269     1.0  0.28125  0.93750  0.25000  1.0000
  O   O1270     1.0  0.34375  0.93750  0.25000  1.0000
  O   O1271     1.0  0.40625  0.93750  0.25000  1.0000
  O   O1272     1.0  0.46875  0.93750  0.25000  1.0000
  O   O1273     1.0  0.53125  0.93750  0.25000  1.0000
  O   O1274     1.0  0.59375  0.93750  0.25000  1.0000
  O   O1275     1.0  0.65625  0.93750  0.25000  1.0000
  O   O1276     1.0  0.71875  0.93750  0.25000  1.0000
  O   O1277     1.0  0.78125  0.93750  0.25000  1.0000
  O   O1278     1.0  0.84375  0.93750  0.25000  1.0000
  O   O1279     1.0  0.90625  0.93750  0.25000  1.0000
  O   O1280     1.0  0.96875  0.93750  0.25000  1.0000
  O   O1281     1.0  0.03125  0.00000  0.75000  1.0000
  O   O1282     1.0  0.09375  0.00000  0.75000  1.0000
  O   O1283     1.0  0.15625  0.00000  0.75000  1.0000
  O   O1284     1.0  0.21875  0.00000  0.75000  1.0000
  O   O1285     1.0  0.28125  0.00000  0.75000  1.0000
  O   O1286     1.0  0.34375  0.00000  0.75000  1.0000
  O   O1287     1.0  0.40625  0.00000  0.75000  1.0000
  O   O1288     1.0  0.46875  0.00000  0.75000  1.0000
  O   O1289     1.0  0.53125  0.00000  0.75000  1.0000
  O   O1290     1.0  0.59375  0.00000  0.75000  1.0000
  O   O1291     1.0  0.65625  0.00000  0.75000  1.0000
  O   O1292     1.0  0.71875  0.00000  0.75000  1.0000
  O   O1293     1.0  0.78125  0.00000  0.75000  1.0000
  O   O1294     1.0  0.84375  0.00000  0.75000  1.0000
  O   O1295     1.0  0.90625  0.00000  0.75000  1.0000
  O   O1296     1.0  0.96875  0.00000  0.75000  1.0000
  O   O1297     1.0  0.03125  0.06250  0.75000  1.0000
  O   O1298     1.0  0.09375  0.06250  0.75000  1.0000
  O   O1299     1.0  0.15625  0.06250  0.75000  1.0000
  O   O1300     1.0  0.21875  0.06250  0.75000  1.0000
  O   O1301     1.0  0.28125  0.06250  0.75000  1.0000
  O   O1302     1.0  0.34375  0.06250  0.75000  1.0000
  O   O1303     1.0  0.40625  0.06250  0.75000  1.0000
  O   O1304     1.0  0.46875  0.06250  0.75000  1.0000
  O   O1305     1.0  0.53125  0.06250  0.75000  1.0000
  O   O1306     1.0  0.59375  0.06250  0.75000  1.0000
  O   O1307     1.0  0.65625  0.06250  0.75000  1.0000
  O   O1308     1.0  0.71875  0.06250  0.75000  1.0000
  O   O1309     1.0  0.78125  0.06250  0.75000  1.0000
  O   O1310     1.0  0.84375  0.06250  0.75000  1.0000
  O   O1311     1.0  0.90625  0.06250  0.75000  1.0000
  O   O1312     1.0  0.96875  0.06250  0.75000  1.0000
  O   O1313     1.0  0.03125  0.12500  0.75000  1.0000
  O   O1314     1.0  0.09375  0.12500  0.75000  1.0000
  O   O1315     1.0  0.15625  0.12500  0.75000  1.0000
  O   O1316     1.0  0.21875  0.12500  0.75000  1.0000
  O   O1317     1.0  0.28125  0.12500  0.75000  1.0000
  O   O1318     1.0  0.34375  0.12500  0.75000  1.0000
  O   O1319     1.0  0.40625  0.12500  0.75000  1.0000
  O   O1320     1.0  0.46875  0.12500  0.75000  1.0000
  O   O1321     1.0  0.53125  0.12500  0.75000  1.0000
  O   O1322     1.0  0.59375  0.12500  0.75000  1.0000
  O   O1323     1.0  0.65625  0.12500  0.75000  1.0000
  O   O1324     1.0  0.71875  0.12500  0.75000  1.0000
  O   O1325     1.0  0.78125  0.12500  0.75000  1.0000
  O   O1326     1.0  0.84375  0.12500  0.75000  1.0000
  O   O1327     1.0  0.90625  0.12500  0.75000  1.0000
  O   O1328     1.0  0.96875  0.12500  0.75000  1.0000
  O   O1329     1.0  0.03125  0.18750  0.75000  1.0000
  O   O1330     1.0  0.09375  0.18750  0.75000  1.0000
  O   O1331     1.0  0.15625  0.18750  0.75000  1.0000
  O   O1332     1.0  0.21875  0.18750  0.75000  1.0000
  O   O1333     1.0  0.28125  0.18750  0.75000  1.0000
  O   O1334     1.0  0.34375  0.18750  0.75000  1.0000
  O   O1335     1.0  0.40625  0.18750  0.75000  1.0000
  O   O1336     1.0  0.46875  0.18750  0.75000  1.0000
  O   O1337     1.0  0.53125  0.18750  0.75000  1.0000
  O   O1338     1.0  0.59375  0.18750  0.75000  1.0000
  O   O1339     1.0  0.65625  0.18750  0.75000  1.0000
  O   O1340     1.0  0.71875  0.18750  0.75000  1.0000
  O   O1341     1.0  0.78125  0.18750  0.75000  1.0000
  O   O1342     1.0  0.84375  0.18750  0.75000  1.0000
  O   O1343     1.0  0.90625  0.18750  0.75000  1.0000
  O   O1344     1.0  0.96875  0.18750  0.75000  1.0000
  O   O1345     1.0  0.03125  0.25000  0.75000  1.0000
  O   O1346     1.0  0.09375  0.25000  0.75000  1.0000
  O   O1347     1.0  0.15625  0.25000  0.75000  1.0000
  O   O1348     1.0  0.21875  0.25000  0.75000  1.0000
  O   O1349     1.0  0.28125  0.25000  0.75000  1.0000
  O   O1350     1.0  0.34375  0.25000  0.75000  1.0000
  O   O1351     1.0  0.40625  0.25000  0.75000  1.0000
  O   O1352     1.0  0.46875  0.25000  0.75000  1.0000
  O   O1353     1.0  0.53125  0.25000  0.75000  1.0000
  O   O1354     1.0  0.59375  0.25000  0.75000  1.0000
  O   O1355     1.0  0.65625  0.25000  0.75000  1.0000
  O   O1356     1.0  0.71875  0.25000  0.75000  1.0000
  O   O1357     1.0  0.78125  0.25000  0.75000  1.0000
  O   O1358     1.0  0.84375  0.25000  0.75000  1.0000
  O   O1359     1.0  0.90625  0.25000  0.75000  1.0000
  O   O1360     1.0  0.96875  0.25000  0.75000  1.0000
  O   O1361     1.0  0.03125  0.31250  0.75000  1.0000
  O   O1362     1.0  0.09375  0.31250  0.75000  1.0000
  O   O1363     1.0  0.15625  0.31250  0.75000  1.0000
  O   O1364     1.0  0.21875  0.31250  0.75000  1.0000
  O   O1365     1.0  0.28125  0.31250  0.75000  1.0000
  O   O1366     1.0  0.34375  0.31250  0.75000  1.0000
  O   O1367     1.0  0.40625  0.31250  0.75000  1.0000
  O   O1368     1.0  0.46875  0.31250  0.75000  1.0000
  O   O1369     1.0  0.53125  0.31250  0.75000  1.0000
  O   O1370     1.0  0.59375  0.31250  0.75000  1.0000
  O   O1371     1.0  0.65625  0.31250  0.75000  1.0000
  O   O1372     1.0  0.71875  0.31250  0.75000  1.0000
  O   O1373     1.0  0.78125  0.31250  0.75000  1.0000
  O   O1374     1.0  0.84375  0.31250  0.75000  1.0000
  O   O1375     1.0  0.90625  0.31250  0.75000  1.0000
  O   O1376     1.0  0.96875  0.31250  0.75000  1.0000
  O   O1377     1.0  0.03125  0.37500  0.75000  1.0000
  O   O1378     1.0  0.09375  0.37500  0.75000  1.0000
  O   O1379     1.0  0.15625  0.37500  0.75000  1.0000
  O   O1380     1.0  0.21875  0.37500  0.75000  1.0000
  O   O1381     1.0  0.28125  0.37500  0.75000  1.0000
  O   O1382     1.0  0.34375  0.37500  0.75000  1.0000
  O   O1383     1.0  0.40625  0.37500  0.75000  1.0000
  O   O1384     1.0  0.46875  0.37500  0.75000  1.0000
  O   O1385     1.0  0.53125  0.37500  0.75000  1.0000
  O   O1386     1.0  0.59375  0.37500  0.75000  1.0000
  O   O1387     1.0  0.65625  0.37500  0.75000  1.0000
  O   O1388     1.0  0.71875  0.37500  0.75000  1.0000
  O   O1389     1.0  0.78125  0.37500  0.75000  1.0000
  O   O1390     1.0  0.84375  0.37500  0.75000  1.0000
  O   O1391     1.0  0.90625  0.37500  0.75000  1.0000
  O   O1392     1.0  0.96875  0.37500  0.75000  1.0000
  O   O1393     1.0  0.03125  0.43750  0.75000  1.0000
  O   O1394     1.0  0.09375  0.43750  0.75000  1.0000
  O   O1395     1.0  0.15625  0.43750  0.75000  1.0000
  O   O1396     1.0  0.21875  0.43750  0.75000  1.0000
  O   O1397     1.0  0.28125  0.43750  0.75000  1.0000
  O   O1398     1.0  0.34375  0.43750  0.75000  1.0000
  O   O1399     1.0  0.40625  0.43750  0.75000  1.0000
  O   O1400     1.0  0.46875  0.43750  0.75000  1.0000
  O   O1401     1.0  0.53125  0.43750  0.75000  1.0000
  O   O1402     1.0  0.59375  0.43750  0.75000  1.0000
  O   O1403     1.0  0.65625  0.43750  0.75000  1.0000
  O   O1404     1.0  0.71875  0.43750  0.75000  1.0000
  O   O1405     1.0  0.78125  0.43750  0.75000  1.0000
  O   O1406     1.0  0.84375  0.43750  0.75000  1.0000
  O   O1407     1.0  0.90625  0.43750  0.75000  1.0000
  O   O1408     1.0  0.96875  0.43750  0.75000  1.0000
  O   O1409     1.0  0.03125  0.50000  0.75000  1.0000
  O   O1410     1.0  0.09375  0.50000  0.75000  1.0000
  O   O1411     1.0  0.15625  0.50000  0.75000  1.0000
  O   O1412     1.0  0.21875  0.50000  0.75000  1.0000
  O   O1413     1.0  0.28125  0.50000  0.75000  1.0000
  O   O1414     1.0  0.34375  0.50000  0.75000  1.0000
  O   O1415     1.0  0.40625  0.50000  0.75000  1.0000
  O   O1416     1.0  0.46875  0.50000  0.75000  1.0000
  O   O1417     1.0  0.53125  0.50000  0.75000  1.0000
  O   O1418     1.0  0.59375  0.50000  0.75000  1.0000
  O   O1419     1.0  0.65625  0.50000  0.75000  1.0000
  O   O1420     1.0  0.71875  0.50000  0.75000  1.0000
  O   O1421     1.0  0.78125  0.50000  0.75000  1.0000
  O   O1422     1.0  0.84375  0.50000  0.75000  1.0000
  O   O1423     1.0  0.90625  0.50000  0.75000  1.0000
  O   O1424     1.0  0.96875  0.50000  0.75000  1.0000
  O   O1425     1.0  0.03125  0.56250  0.75000  1.0000
  O   O1426     1.0  0.09375  0.56250  0.75000  1.0000
  O   O1427     1.0  0.15625  0.56250  0.75000  1.0000
  O   O1428     1.0  0.21875  0.56250  0.75000  1.0000
  O   O1429     1.0  0.28125  0.56250  0.75000  1.0000
  O   O1430     1.0  0.34375  0.56250  0.75000  1.0000
  O   O1431     1.0  0.40625  0.56250  0.75000  1.0000
  O   O1432     1.0  0.46875  0.56250  0.75000  1.0000
  O   O1433     1.0  0.53125  0.56250  0.75000  1.0000
  O   O1434     1.0  0.59375  0.56250  0.75000  1.0000
  O   O1435     1.0  0.65625  0.56250  0.75000  1.0000
  O   O1436     1.0  0.71875  0.56250  0.75000  1.0000
  O   O1437     1.0  0.78125  0.56250  0.75000  1.0000
  O   O1438     1.0  0.84375  0.56250  0.75000  1.0000
  O   O1439     1.0  0.90625  0.56250  0.75000  1.0000
  O   O1440     1.0  0.96875  0.56250  0.75000  1.0000
  O   O1441     1.0  0.03125  0.62500  0.75000  1.0000
  O   O1442     1.0  0.09375  0.62500  0.75000  1.0000
  O   O1443     1.0  0.15625  0.62500  0.75000  1.0000
  O   O1444     1.0  0.21875  0.62500  0.75000  1.0000
  O   O1445     1.0  0.28125  0.62500  0.75000  1.0000
  O   O1446     1.0  0.34375  0.62500  0.75000  1.0000
  O   O1447     1.0  0.40625  0.62500  0.75000  1.0000
  O   O1448     1.0  0.46875  0.62500  0.75000  1.0000
  O   O1449     1.0  0.53125  0.62500  0.75000  1.0000
  O   O1450     1.0  0.59375  0.62500  0.75000  1.0000
  O   O1451     1.0  0.65625  0.62500  0.75000  1.0000
  O   O1452     1.0  0.71875  0.62500  0.75000  1.0000
  O   O1453     1.0  0.78125  0.62500  0.75000  1.0000
  O   O1454     1.0  0.84375  0.62500  0.75000  1.0000
  O   O1455     1.0  0.90625  0.62500  0.75000  1.0000
  O   O1456     1.0  0.96875  0.62500  0.75000  1.0000
  O   O1457     1.0  0.03125  0.68750  0.75000  1.0000
  O   O1458     1.0  0.09375  0.68750  0.75000  1.0000
  O   O1459     1.0  0.15625  0.68750  0.75000  1.0000
  O   O1460     1.0  0.21875  0.68750  0.75000  1.0000
  O   O1461     1.0  0.28125  0.68750  0.75000  1.0000
  O   O1462     1.0  0.34375  0.68750  0.75000  1.0000
  O   O1463     1.0  0.40625  0.68750  0.75000  1.0000
  O   O1464     1.0  0.46875  0.68750  0.75000  1.0000
  O   O1465     1.0  0.53125  0.68750  0.75000  1.0000
  O   O1466     1.0  0.59375  0.68750  0.75000  1.0000
  O   O1467     1.0  0.65625  0.68750  0.75000  1.0000
  O   O1468     1.0  0.71875  0.68750  0.75000  1.0000
  O   O1469     1.0  0.78125  0.68750  0.75000  1.0000
  O   O1470     1.0  0.84375  0.68750  0.75000  1.0000
  O   O1471     1.0  0.90625  0.68750  0.75000  1.0000
  O   O1472     1.0  0.96875  0.68750  0.75000  1.0000
  O   O1473     1.0  0.03125  0.75000  0.75000  1.0000
  O   O1474     1.0  0.09375  0.75000  0.75000  1.0000
  O   O1475     1.0  0.15625  0.75000  0.75000  1.0000
  O   O1476     1.0  0.21875  0.75000  0.75000  1.0000
  O   O1477     1.0  0.28125  0.75000  0.75000  1.0000
  O   O1478     1.0  0.34375  0.75000  0.75000  1.0000
  O   O1479     1.0  0.40625  0.75000  0.75000  1.0000
  O   O1480     1.0  0.46875  0.75000  0.75000  1.0000
  O   O1481     1.0  0.53125  0.75000  0.75000  1.0000
  O   O1482     1.0  0.59375  0.75000  0.75000  1.0000
  O   O1483     1.0  0.65625  0.75000  0.75000  1.0000
  O   O1484     1.0  0.71875  0.75000  0.75000  1.0000
  O   O1485     1.0  0.78125  0.75000  0.75000  1.0000
  O   O1486     1.0  0.84375  0.75000  0.75000  1.0000
  O   O1487     1.0  0.90625  0.75000  0.75000  1.0000
  O   O1488     1.0  0.96875  0.75000  0.75000  1.0000
  O   O1489     1.0  0.03125  0.81250  0.75000  1.0000
  O   O1490     1.0  0.09375  0.81250  0.75000  1.0000
  O   O1491     1.0  0.15625  0.81250  0.75000  1.0000
  O   O1492     1.0  0.21875  0.81250  0.75000  1.0000
  O   O1493     1.0  0.28125  0.81250  0.75000  1.0000
  O   O1494     1.0  0.34375  0.81250  0.75000  1.0000
  O   O1495     1.0  0.40625  0.81250  0.75000  1.0000
  O   O1496     1.0  0.46875  0.81250  0.75000  1.0000
  O   O1497     1.0  0.53125  0.81250  0.75000  1.0000
  O   O1498     1.0  0.59375  0.81250  0.75000  1.0000
  O   O1499     1.0  0.65625  0.81250  0.75000  1.0000
  O   O1500     1.0  0.71875  0.81250  0.75000  1.0000
  O   O1501     1.0  0.78125  0.81250  0.75000  1.0000
  O   O1502     1.0  0.84375  0.81250  0.75000  1.0000
  O   O1503     1.0  0.90625  0.81250  0.75000  1.0000
  O   O1504     1.0  0.96875  0.81250  0.75000  1.0000
  O   O1505     1.0  0.03125  0.87500  0.75000  1.0000
  O   O1506     1.0  0.09375  0.87500  0.75000  1.0000
  O   O1507     1.0  0.15625  0.87500  0.75000  1.0000
  O   O1508     1.0  0.21875  0.87500  0.75000  1.0000
  O   O1509     1.0  0.28125  0.87500  0.75000  1.0000
  O   O1510     1.0  0.34375  0.87500  0.75000  1.0000
  O   O1511     1.0  0.40625  0.87500  0.75000  1.0000
  O   O1512     1.0  0.46875  0.87500  0.75000  1.0000
  O   O1513     1.0  0.53125  0.87500  0.75000  1.0000
  O   O1514     1.0  0.59375  0.87500  0.75000  1.0000
  O   O1515     1.0  0.65625  0.87500  0.75000  1.0000
  O   O1516     1.0  0.71875  0.87500  0.75000  1.0000
  O   O1517     1.0  0.78125  0.87500  0.75000  1.0000
  O   O1518     1.0  0.84375  0.87500  0.75000  1.0000
  O   O1519     1.0  0.90625  0.87500  0.75000  1.0000
  O   O1520     1.0  0.96875  0.87500  0.75000  1.0000
  O   O1521     1.0  0.03125  0.93750  0.75000  1.0000
  O   O1522     1.0  0.09375  0.93750  0.75000  1.0000
  O   O1523     1.0  0.15625  0.93750  0.75000  1.0000
  O   O1524     1.0  0.21875  0.93750  0.75000  1.0000
  O   O1525     1.0  0.28125  0.93750  0.75000  1.0000
  O   O1526     1.0  0.34375  0.93750  0.75000  1.0000
  O   O1527     1.0  0.40625  0.93750  0.75000  1.0000
  O   O1528     1.0  0.46875  0.93750  0.75000  1.0000
  O   O1529     1.0  0.53125  0.93750  0.75000  1.0000
  O   O1530     1.0  0.59375  0.93750  0.75000  1.0000
  O   O1531     1.0  0.65625  0.93750  0.75000  1.0000
  O   O1532     1.0  0.71875  0.93750  0.75000  1.0000
  O   O1533     1.0  0.78125  0.93750  0.75000  1.0000
  O   O1534     1.0  0.84375  0.93750  0.75000  1.0000
  O   O1535     1.0  0.90625  0.93750  0.75000  1.0000
  O   O1536     1.0  0.96875  0.93750  0.75000  1.0000
